<?xml version="1.0" encoding="UTF-8"?>

<!-- generated on 2026-04-14 11:45:39 by Eclipse SUMO netedit Version 1.24.0
<neteditConfiguration xmlns:xsi="http://www.w3.org/2001/XMLSchema-instance" xsi:noNamespaceSchemaLocation="http://sumo.dlr.de/xsd/neteditConfiguration.xsd">

    <input>
        <sumo-net-file value="D:\000hff的个人文件\比赛 建设\路网sumo\bgsc.net.xml"/>
    </input>

    <output>
        <output-file value="D:\000hff的个人文件\比赛 建设\路网sumo\bgsc.net.xml"/>
    </output>

    <processing>
        <geometry.min-radius.fix.railways value="false"/>
        <geometry.avoid-overlap value="false"/>
        <geometry.max-grade.fix value="false"/>
        <offset.disable-normalization value="true"/>
        <lefthand value="0"/>
    </processing>

    <junctions>
        <no-turnarounds value="true"/>
        <junctions.corner-detail value="5"/>
        <junctions.limit-turn-speed value="5.50"/>
        <rectangular-lane-cut value="0"/>
    </junctions>

    <pedestrian>
        <walkingareas value="0"/>
    </pedestrian>

</neteditConfiguration>
-->

<net version="1.20" junctionCornerDetail="5" limitTurnSpeed="5.50" avoidOverlap="0" xmlns:xsi="http://www.w3.org/2001/XMLSchema-instance" xsi:noNamespaceSchemaLocation="http://sumo.dlr.de/xsd/net_file.xsd">

    <location netOffset="-271933.38,-4209791.71" convBoundary="8137.50,4.34,10913.02,3881.83" origBoundary="114.401174,38.009413,114.623723,38.091366" projParameter="+proj=utm +zone=50 +ellps=WGS84 +datum=WGS84 +units=m +no_defs"/>

    <type id="highway.residential" priority="3" numLanes="1" speed="13.89" disallow="tram rail_urban rail rail_electric rail_fast ship container cable_car subway aircraft wheelchair scooter drone" oneway="0"/>
    <type id="highway.tertiary" priority="10" numLanes="1" speed="22.22" disallow="tram rail_urban rail rail_electric rail_fast ship container cable_car subway aircraft wheelchair scooter drone" oneway="0"/>
    <type id="highway.unclassified" priority="4" numLanes="1" speed="13.89" disallow="tram rail_urban rail rail_electric rail_fast ship container cable_car subway aircraft wheelchair scooter drone" oneway="0"/>

    <edge id=":12254169256_0" function="internal">
        <lane id=":12254169256_0_0" index="0" disallow="tram rail_urban rail rail_electric rail_fast ship container cable_car subway aircraft wheelchair scooter drone" speed="7.25" length="11.56" shape="8859.24,3722.25 8858.87,3718.48 8857.81,3715.80 8856.04,3714.21 8853.58,3713.71"/>
        <lane id=":12254169256_0_1" index="1" disallow="tram rail_urban rail rail_electric rail_fast ship container cable_car subway aircraft wheelchair scooter drone" speed="8.03" length="14.42" shape="8859.24,3722.25 8858.86,3717.08 8857.79,3713.40 8856.01,3711.21 8853.53,3710.51"/>
    </edge>
    <edge id=":12254169256_2" function="internal">
        <lane id=":12254169256_2_0" index="0" speed="6.62" length="9.03" shape="8867.93,3716.41 8865.52,3716.89 8863.81,3718.02 8862.78,3719.80 8862.45,3722.24"/>
    </edge>
    <edge id=":12254169256_3" function="internal">
        <lane id=":12254169256_3_0" index="0" speed="13.89" length="14.06" shape="8867.76,3713.22 8853.58,3713.71"/>
        <lane id=":12254169256_3_1" index="1" speed="13.89" length="14.06" shape="8867.58,3710.02 8853.53,3710.51"/>
        <lane id=":12254169256_3_2" index="2" speed="13.89" length="14.06" shape="8867.41,3706.83 8853.48,3707.31"/>
    </edge>
    <edge id=":12254169256_6" function="internal">
        <lane id=":12254169256_6_0" index="0" speed="13.89" length="13.69" shape="8853.32,3697.71 8866.88,3697.24"/>
        <lane id=":12254169256_6_1" index="1" speed="13.89" length="13.69" shape="8853.37,3700.91 8867.05,3700.44"/>
        <lane id=":12254169256_6_2" index="2" speed="13.89" length="13.69" shape="8853.43,3704.11 8867.23,3703.63"/>
    </edge>
    <edge id=":12254641670_0" function="internal">
        <lane id=":12254641670_0_0" index="0" speed="13.89" length="11.79" shape="8278.13,3573.08 8277.88,3561.12"/>
        <lane id=":12254641670_0_1" index="1" speed="13.89" length="11.79" shape="8281.33,3572.98 8281.08,3561.13"/>
        <lane id=":12254641670_0_2" index="2" speed="13.89" length="11.79" shape="8284.52,3572.87 8284.28,3561.15"/>
        <lane id=":12254641670_0_3" index="3" speed="13.89" length="11.79" shape="8287.72,3572.77 8287.48,3561.16"/>
    </edge>
    <edge id=":12254641670_4" function="internal">
        <lane id=":12254641670_4_0" index="0" disallow="tram rail_urban rail rail_electric rail_fast ship container cable_car subway aircraft wheelchair scooter drone" speed="6.39" length="9.04" shape="8302.82,3566.90 8300.35,3567.20 8298.60,3568.22 8297.59,3569.97 8297.32,3572.46"/>
        <lane id=":12254641670_4_1" index="1" disallow="tram rail_urban rail rail_electric rail_fast ship container cable_car subway aircraft wheelchair scooter drone" speed="7.21" length="11.83" shape="8302.82,3566.90 8298.94,3567.18 8296.20,3568.21 8294.59,3570.00 8294.12,3572.56"/>
        <lane id=":12254641670_4_2" index="2" disallow="tram rail_urban rail rail_electric rail_fast ship container cable_car subway aircraft wheelchair scooter drone" speed="7.99" length="14.76" shape="8302.82,3566.90 8297.54,3567.15 8293.80,3568.20 8291.59,3570.03 8290.92,3572.66"/>
    </edge>
    <edge id=":12254641670_7" function="internal">
        <lane id=":12254641670_7_0" index="0" speed="13.89" length="11.38" shape="8297.08,3561.20 8297.32,3572.46"/>
        <lane id=":12254641670_7_1" index="1" speed="13.89" length="11.38" shape="8293.88,3561.18 8294.12,3572.56"/>
        <lane id=":12254641670_7_2" index="2" speed="13.89" length="11.38" shape="8290.68,3561.17 8290.92,3572.66"/>
    </edge>
    <edge id=":12254641672_0" function="internal">
        <lane id=":12254641672_0_0" index="0" disallow="tram rail_urban rail rail_electric rail_fast ship container cable_car subway aircraft wheelchair scooter drone" speed="7.93" length="13.00" shape="8306.70,3457.03 8302.64,3457.67 8299.71,3459.04 8297.92,3461.13 8297.26,3463.95"/>
    </edge>
    <edge id=":12254641672_1" function="internal">
        <lane id=":12254641672_1_0" index="0" disallow="tram rail_urban rail rail_electric rail_fast ship container cable_car subway aircraft wheelchair scooter drone" speed="18.05" length="34.09" shape="8306.70,3457.03 8272.62,3457.65"/>
    </edge>
    <edge id=":12254641672_2" function="internal">
        <lane id=":12254641672_2_0" index="0" disallow="tram rail_urban rail rail_electric rail_fast ship container cable_car subway aircraft wheelchair scooter drone" speed="10.42" length="26.78" shape="8306.70,3457.03 8297.75,3457.15 8290.83,3455.97 8286.44,3452.99 8285.08,3447.66"/>
        <lane id=":12254641672_2_1" index="1" disallow="tram rail_urban rail rail_electric rail_fast ship container cable_car subway aircraft wheelchair scooter drone" speed="9.76" length="23.38" shape="8306.70,3457.03 8298.46,3456.88 8292.64,3455.29 8289.24,3452.26 8288.28,3447.81"/>
    </edge>
    <edge id=":12254641672_4" function="internal">
        <lane id=":12254641672_4_0" index="0" disallow="tram rail_urban rail rail_electric rail_fast ship container cable_car subway aircraft wheelchair scooter drone" speed="3.65" length="4.67" shape="8306.70,3457.03 8305.46,3456.30 8305.01,3455.53 8305.36,3454.71 8306.51,3453.84"/>
    </edge>
    <edge id=":12254641672_5" function="internal">
        <lane id=":12254641672_5_0" index="0" disallow="tram rail_urban rail rail_electric rail_fast ship container cable_car subway aircraft wheelchair scooter drone" speed="6.31" length="9.05" shape="8300.97,3448.40 8301.24,3450.91 8302.25,3452.65 8304.01,3453.63 8306.51,3453.84"/>
    </edge>
    <edge id=":12254641672_6" function="internal">
        <lane id=":12254641672_6_0" index="0" speed="13.89" length="15.76" shape="8297.78,3448.25 8297.26,3463.95"/>
        <lane id=":12254641672_6_1" index="1" speed="13.89" length="15.76" shape="8294.58,3448.10 8294.06,3463.86"/>
        <lane id=":12254641672_6_2" index="2" speed="13.89" length="15.76" shape="8291.38,3447.95 8290.86,3463.76"/>
    </edge>
    <edge id=":12254641672_9" function="internal">
        <lane id=":12254641672_9_0" index="0" speed="6.50" length="9.03" shape="8278.06,3463.39 8277.78,3460.93 8276.78,3459.15 8275.06,3458.06 8272.62,3457.65"/>
    </edge>
    <edge id=":12254641672_10" function="internal">
        <lane id=":12254641672_10_0" index="0" speed="13.89" length="15.96" shape="8278.06,3463.39 8278.69,3447.35"/>
        <lane id=":12254641672_10_1" index="1" speed="13.89" length="15.96" shape="8281.26,3463.48 8281.88,3447.51"/>
        <lane id=":12254641672_10_2" index="2" speed="13.89" length="15.96" shape="8284.46,3463.58 8285.08,3447.66"/>
        <lane id=":12254641672_10_3" index="3" speed="13.89" length="15.96" shape="8287.66,3463.67 8288.28,3447.81"/>
    </edge>
    <edge id=":12254641672_14" function="internal">
        <lane id=":12254641672_14_0" index="0" disallow="tram rail_urban rail rail_electric rail_fast ship container cable_car subway aircraft wheelchair scooter drone" speed="10.42" length="23.11" shape="8287.66,3463.67 8288.93,3459.78 8292.50,3456.85 8298.36,3454.87 8306.51,3453.84"/>
    </edge>
    <edge id=":12254671324_0" function="internal">
        <lane id=":12254671324_0_0" index="0" speed="7.16" length="11.19" shape="8276.81,3751.79 8276.43,3748.22 8275.36,3745.67 8273.60,3744.16 8271.14,3743.67"/>
        <lane id=":12254671324_0_1" index="1" speed="7.95" length="14.01" shape="8276.81,3751.79 8276.42,3746.82 8275.34,3743.27 8273.57,3741.16 8271.10,3740.47"/>
    </edge>
    <edge id=":12254671324_2" function="internal">
        <lane id=":12254671324_2_0" index="0" speed="13.89" length="39.17" shape="8280.01,3751.77 8280.58,3712.45"/>
        <lane id=":12254671324_2_1" index="1" speed="13.89" length="39.17" shape="8283.21,3751.74 8283.78,3712.57"/>
        <lane id=":12254671324_2_2" index="2" speed="13.89" length="39.17" shape="8286.41,3751.71 8286.98,3712.69"/>
        <lane id=":12254671324_2_3" index="3" speed="13.89" length="39.17" shape="8286.41,3751.71 8286.83,3740.14 8287.96,3732.25 8289.26,3724.38 8290.17,3712.80"/>
    </edge>
    <edge id=":12254671324_6" function="internal">
        <lane id=":12254671324_6_0" index="0" speed="13.07" length="38.21" shape="8289.61,3751.69 8290.94,3741.04 8295.11,3733.26 8302.13,3728.35 8312.00,3726.30"/>
        <lane id=":12254671324_6_1" index="1" speed="12.65" length="35.72" shape="8289.61,3751.69 8290.96,3742.44 8295.17,3735.66 8302.24,3731.35 8312.18,3729.49"/>
    </edge>
    <edge id=":12254671324_8" function="internal">
        <lane id=":12254671324_8_0" index="0" speed="7.95" length="13.50" shape="8313.05,3745.47 8308.38,3746.07 8305.05,3747.29 8303.06,3749.13 8302.41,3751.58"/>
        <lane id=":12254671324_8_1" index="1" speed="8.69" length="16.33" shape="8313.05,3745.47 8306.98,3746.14 8302.65,3747.38 8300.06,3749.21 8299.21,3751.61"/>
    </edge>
    <edge id=":12254671324_10" function="internal">
        <lane id=":12254671324_10_0" index="0" speed="13.89" length="41.73" shape="8312.88,3742.27 8271.14,3743.67"/>
        <lane id=":12254671324_10_1" index="1" speed="13.89" length="41.73" shape="8312.88,3742.27 8300.36,3742.44 8291.66,3741.72 8283.13,3740.82 8271.10,3740.47"/>
        <lane id=":12254671324_10_2" index="2" speed="13.89" length="41.73" shape="8312.70,3739.08 8300.23,3739.24 8291.58,3738.52 8283.09,3737.62 8271.07,3737.27"/>
        <lane id=":12254671324_10_3" index="3" speed="13.89" length="41.73" shape="8312.53,3735.88 8300.11,3736.05 8291.50,3735.32 8283.04,3734.42 8271.03,3734.07"/>
    </edge>
    <edge id=":12254671324_14" function="internal">
        <lane id=":12254671324_14_0" index="0" speed="12.51" length="15.03" shape="8312.35,3732.69 8300.73,3732.49 8297.51,3731.39"/>
        <lane id=":12254671324_14_1" index="1" speed="12.03" length="12.48" shape="8312.35,3732.69 8301.83,3732.29 8300.04,3731.52"/>
    </edge>
    <edge id=":12254671324_30" function="internal">
        <lane id=":12254671324_30_0" index="0" speed="12.51" length="23.69" shape="8297.51,3731.39 8292.69,3729.75 8288.14,3723.48 8286.98,3712.69"/>
        <lane id=":12254671324_30_1" index="0" speed="12.03" length="23.23" shape="8300.04,3731.52 8294.84,3729.29 8291.06,3723.01 8290.17,3712.80"/>
    </edge>
    <edge id=":12254671324_16" function="internal">
        <lane id=":12254671324_16_0" index="0" speed="6.58" length="9.90" shape="8306.16,3713.40 8306.41,3716.36 8307.41,3718.44 8309.16,3719.62 8311.65,3719.91"/>
        <lane id=":12254671324_16_1" index="1" speed="7.40" length="12.82" shape="8306.16,3713.40 8306.38,3717.77 8307.39,3720.84 8309.21,3722.62 8311.83,3723.10"/>
    </edge>
    <edge id=":12254671324_18" function="internal">
        <lane id=":12254671324_18_0" index="0" speed="13.89" length="38.54" shape="8302.96,3713.28 8302.41,3751.58"/>
        <lane id=":12254671324_18_1" index="1" speed="13.89" length="38.54" shape="8299.77,3713.16 8299.21,3751.61"/>
        <lane id=":12254671324_18_2" index="2" speed="13.89" length="38.54" shape="8296.57,3713.04 8296.01,3751.63"/>
        <lane id=":12254671324_18_3" index="3" speed="13.89" length="38.54" shape="8296.57,3713.04 8292.81,3751.66"/>
    </edge>
    <edge id=":12254671324_22" function="internal">
        <lane id=":12254671324_22_0" index="0" speed="12.48" length="34.71" shape="8293.37,3712.92 8291.68,3722.09 8287.40,3728.67 8280.51,3732.66 8271.03,3734.07"/>
    </edge>
    <edge id=":12254671324_23" function="internal">
        <lane id=":12254671324_23_0" index="0" speed="7.66" length="12.45" shape="8270.86,3718.07 8275.03,3717.68 8278.05,3716.61 8279.89,3714.87 8280.58,3712.45"/>
        <lane id=":12254671324_23_1" index="1" speed="8.42" length="15.24" shape="8270.86,3718.07 8276.43,3717.68 8280.45,3716.63 8282.90,3714.92 8283.78,3712.57"/>
    </edge>
    <edge id=":12254671324_25" function="internal">
        <lane id=":12254671324_25_0" index="0" speed="13.89" length="41.12" shape="8270.89,3721.27 8311.83,3723.10"/>
        <lane id=":12254671324_25_1" index="1" speed="13.89" length="41.12" shape="8270.93,3724.47 8312.00,3726.30"/>
        <lane id=":12254671324_25_2" index="2" speed="13.89" length="41.12" shape="8270.96,3727.67 8312.18,3729.49"/>
    </edge>
    <edge id=":12254671324_28" function="internal">
        <lane id=":12254671324_28_0" index="0" speed="12.63" length="8.73" shape="8271.00,3730.87 8279.68,3731.83"/>
        <lane id=":12254671324_28_1" index="1" speed="12.19" length="7.18" shape="8271.00,3730.87 8278.12,3731.78"/>
    </edge>
    <edge id=":12254671324_31" function="internal">
        <lane id=":12254671324_31_0" index="0" speed="12.63" length="28.29" shape="8279.68,3731.83 8281.88,3732.07 8289.67,3735.92 8294.38,3742.45 8296.01,3751.63"/>
        <lane id=":12254671324_31_1" index="0" speed="12.19" length="27.20" shape="8278.12,3731.78 8280.48,3732.08 8287.27,3735.95 8291.38,3742.48 8292.81,3751.66"/>
    </edge>
    <edge id=":12254692357_0" function="internal">
        <lane id=":12254692357_0_0" index="0" disallow="tram rail_urban rail rail_electric rail_fast ship container cable_car subway aircraft wheelchair scooter drone" speed="18.05" length="7.94" shape="8230.01,3168.47 8222.07,3168.50"/>
    </edge>
    <edge id=":12254692357_1" function="internal">
        <lane id=":12254692357_1_0" index="0" disallow="tram rail_urban rail rail_electric rail_fast ship container cable_car subway aircraft wheelchair scooter drone" speed="3.65" length="1.44" shape="8230.01,3168.47 8228.82,3167.66"/>
    </edge>
    <edge id=":12254692357_4" function="internal">
        <lane id=":12254692357_4_0" index="0" disallow="tram rail_urban rail rail_electric rail_fast ship container cable_car subway aircraft wheelchair scooter drone" speed="3.65" length="3.23" shape="8228.82,3167.66 8228.42,3166.86 8228.83,3166.06 8230.03,3165.27"/>
    </edge>
    <edge id=":12254692357_2" function="internal">
        <lane id=":12254692357_2_0" index="0" disallow="tram rail_urban rail rail_electric rail_fast ship container cable_car subway aircraft wheelchair scooter drone" speed="18.05" length="8.41" shape="8222.03,3165.30 8224.50,3164.77 8226.04,3163.66 8227.58,3162.56 8230.04,3162.07"/>
        <lane id=":12254692357_2_1" index="1" disallow="tram rail_urban rail rail_electric rail_fast ship container cable_car subway aircraft wheelchair scooter drone" speed="18.05" length="8.41" shape="8222.03,3165.30 8230.03,3165.27"/>
    </edge>
    <edge id=":12254692358_0" function="internal">
        <lane id=":12254692358_0_0" index="0" disallow="tram rail_urban rail rail_electric rail_fast ship container cable_car subway aircraft wheelchair scooter drone" speed="7.85" length="12.98" shape="8307.57,3168.06 8303.57,3168.59 8300.68,3169.91 8298.90,3172.04 8298.24,3174.96"/>
    </edge>
    <edge id=":12254692358_1" function="internal">
        <lane id=":12254692358_1_0" index="0" disallow="tram rail_urban rail rail_electric rail_fast ship container cable_car subway aircraft wheelchair scooter drone" speed="22.22" length="34.04" shape="8307.57,3168.06 8273.53,3168.68"/>
    </edge>
    <edge id=":12254692358_2" function="internal">
        <lane id=":12254692358_2_0" index="0" disallow="tram rail_urban rail rail_electric rail_fast ship container cable_car subway aircraft wheelchair scooter drone" speed="10.07" length="11.23" shape="8307.57,3168.06 8299.40,3167.57 8296.52,3166.57"/>
    </edge>
    <edge id=":12254692358_17" function="internal">
        <lane id=":12254692358_17_0" index="0" disallow="tram rail_urban rail rail_electric rail_fast ship container cable_car subway aircraft wheelchair scooter drone" speed="10.07" length="13.04" shape="8296.52,3166.57 8293.62,3165.57 8290.25,3162.06 8289.28,3157.04"/>
    </edge>
    <edge id=":12254692358_3" function="internal">
        <lane id=":12254692358_3_0" index="0" disallow="tram rail_urban rail rail_electric rail_fast ship container cable_car subway aircraft wheelchair scooter drone" speed="6.81" length="10.48" shape="8302.05,3157.55 8302.28,3160.81 8303.27,3163.11 8305.00,3164.46 8307.48,3164.86"/>
    </edge>
    <edge id=":12254692358_4" function="internal">
        <lane id=":12254692358_4_0" index="0" speed="13.89" length="17.58" shape="8298.85,3157.42 8298.24,3174.96"/>
        <lane id=":12254692358_4_1" index="1" speed="13.89" length="17.58" shape="8295.66,3157.29 8295.04,3174.86"/>
        <lane id=":12254692358_4_2" index="2" speed="13.89" length="17.58" shape="8292.46,3157.16 8291.84,3174.76"/>
    </edge>
    <edge id=":12254692358_7" function="internal">
        <lane id=":12254692358_7_0" index="0" disallow="tram rail_urban rail rail_electric rail_fast ship container cable_car subway aircraft wheelchair scooter drone" speed="10.54" length="24.74" shape="8292.46,3157.16 8291.11,3162.24 8287.51,3165.85 8281.65,3167.99 8273.53,3168.68"/>
    </edge>
    <edge id=":12254692358_8" function="internal">
        <lane id=":12254692358_8_0" index="0" disallow="tram rail_urban rail rail_electric rail_fast ship container cable_car subway aircraft wheelchair scooter drone" speed="7.57" length="12.25" shape="8273.34,3162.28 8277.44,3161.95 8280.39,3160.93 8282.21,3159.20 8282.89,3156.78"/>
    </edge>
    <edge id=":12254692358_9" function="internal">
        <lane id=":12254692358_9_0" index="0" disallow="tram rail_urban rail rail_electric rail_fast ship container cable_car subway aircraft wheelchair scooter drone" speed="22.22" length="34.23" shape="8273.34,3162.28 8307.48,3164.86"/>
    </edge>
    <edge id=":12254692358_10" function="internal">
        <lane id=":12254692358_10_0" index="0" disallow="tram rail_urban rail rail_electric rail_fast ship container cable_car subway aircraft wheelchair scooter drone" speed="10.52" length="8.44" shape="8273.44,3165.48 8281.85,3166.03"/>
        <lane id=":12254692358_10_1" index="1" disallow="tram rail_urban rail rail_electric rail_fast ship container cable_car subway aircraft wheelchair scooter drone" speed="9.93" length="7.57" shape="8273.44,3165.48 8280.99,3166.05"/>
    </edge>
    <edge id=":12254692358_18" function="internal">
        <lane id=":12254692358_18_0" index="0" disallow="tram rail_urban rail rail_electric rail_fast ship container cable_car subway aircraft wheelchair scooter drone" speed="10.52" length="17.37" shape="8281.85,3166.03 8283.00,3166.11 8289.79,3167.88 8293.80,3170.79 8295.04,3174.86"/>
        <lane id=":12254692358_18_1" index="0" disallow="tram rail_urban rail rail_electric rail_fast ship container cable_car subway aircraft wheelchair scooter drone" speed="9.93" length="15.29" shape="8280.99,3166.05 8281.60,3166.09 8287.39,3167.84 8290.80,3170.73 8291.84,3174.76"/>
    </edge>
    <edge id=":12254692358_12" function="internal">
        <lane id=":12254692358_12_0" index="0" disallow="tram rail_urban rail rail_electric rail_fast ship container cable_car subway aircraft wheelchair scooter drone" speed="6.46" length="9.08" shape="8279.05,3174.35 8278.77,3171.88 8277.76,3170.11 8276.01,3169.04 8273.53,3168.68"/>
    </edge>
    <edge id=":12254692358_13" function="internal">
        <lane id=":12254692358_13_0" index="0" speed="13.89" length="17.65" shape="8282.25,3174.45 8282.89,3156.78"/>
        <lane id=":12254692358_13_1" index="1" speed="13.89" length="17.65" shape="8285.44,3174.55 8286.09,3156.91"/>
        <lane id=":12254692358_13_2" index="2" speed="13.89" length="17.65" shape="8288.64,3174.65 8289.28,3157.04"/>
    </edge>
    <edge id=":12254692358_16" function="internal">
        <lane id=":12254692358_16_0" index="0" disallow="tram rail_urban rail rail_electric rail_fast ship container cable_car subway aircraft wheelchair scooter drone" speed="10.34" length="23.27" shape="8288.64,3174.65 8289.93,3170.57 8293.50,3167.57 8299.35,3165.67 8307.48,3164.86"/>
    </edge>
    <edge id=":12257754085_0" function="internal">
        <lane id=":12257754085_0_0" index="0" disallow="tram rail_urban rail rail_electric rail_fast ship container cable_car subway aircraft wheelchair scooter drone" speed="22.22" length="14.40" shape="8702.37,3269.36 8702.14,3254.96"/>
    </edge>
    <edge id=":12257754085_1" function="internal">
        <lane id=":12257754085_1_0" index="0" disallow="tram rail_urban rail rail_electric rail_fast ship container cable_car subway aircraft wheelchair scooter drone" speed="8.12" length="4.01" shape="8702.37,3269.36 8702.87,3265.56 8702.95,3265.41"/>
    </edge>
    <edge id=":12257754085_2" function="internal">
        <lane id=":12257754085_2_0" index="0" disallow="tram rail_urban rail rail_electric rail_fast ship container cable_car subway aircraft wheelchair scooter drone" speed="3.65" length="1.44" shape="8702.37,3269.36 8703.16,3268.15"/>
    </edge>
    <edge id=":12257754085_9" function="internal">
        <lane id=":12257754085_9_0" index="0" disallow="tram rail_urban rail rail_electric rail_fast ship container cable_car subway aircraft wheelchair scooter drone" speed="8.12" length="10.23" shape="8702.95,3265.41 8704.48,3262.78 8707.22,3261.01 8711.08,3260.27"/>
    </edge>
    <edge id=":12257754085_10" function="internal">
        <lane id=":12257754085_10_0" index="0" disallow="tram rail_urban rail rail_electric rail_fast ship container cable_car subway aircraft wheelchair scooter drone" speed="3.65" length="3.23" shape="8703.16,3268.15 8703.95,3267.74 8704.76,3268.12 8705.57,3269.31"/>
    </edge>
    <edge id=":12257754085_3" function="internal">
        <lane id=":12257754085_3_0" index="0" disallow="tram rail_urban rail rail_electric rail_fast ship container cable_car subway aircraft wheelchair scooter drone" speed="6.65" length="9.21" shape="8711.25,3263.47 8708.73,3263.95 8706.95,3265.08 8705.90,3266.87 8705.57,3269.31"/>
    </edge>
    <edge id=":12257754085_4" function="internal">
        <lane id=":12257754085_4_0" index="0" disallow="tram rail_urban rail rail_electric rail_fast ship container cable_car subway aircraft wheelchair scooter drone" speed="7.94" length="14.33" shape="8711.25,3263.47 8707.32,3263.11 8704.49,3261.57 8702.77,3258.86 8702.14,3254.96"/>
    </edge>
    <edge id=":12257754085_5" function="internal">
        <lane id=":12257754085_5_0" index="0" disallow="tram rail_urban rail rail_electric rail_fast ship container cable_car subway aircraft wheelchair scooter drone" speed="3.65" length="4.67" shape="8711.25,3263.47 8710.01,3262.73 8709.57,3261.95 8709.93,3261.14 8711.08,3260.27"/>
    </edge>
    <edge id=":12257754085_6" function="internal">
        <lane id=":12257754085_6_0" index="0" disallow="tram rail_urban rail rail_electric rail_fast ship container cable_car subway aircraft wheelchair scooter drone" speed="6.43" length="9.03" shape="8705.34,3254.91 8705.73,3257.37 8706.82,3259.08 8708.61,3260.05 8711.08,3260.27"/>
    </edge>
    <edge id=":12257754085_7" function="internal">
        <lane id=":12257754085_7_0" index="0" disallow="tram rail_urban rail rail_electric rail_fast ship container cable_car subway aircraft wheelchair scooter drone" speed="22.22" length="14.40" shape="8705.34,3254.91 8705.57,3269.31"/>
    </edge>
    <edge id=":12257754085_8" function="internal">
        <lane id=":12257754085_8_0" index="0" disallow="tram rail_urban rail rail_electric rail_fast ship container cable_car subway aircraft wheelchair scooter drone" speed="3.65" length="1.44" shape="8705.34,3254.91 8704.56,3256.12"/>
    </edge>
    <edge id=":12257754085_11" function="internal">
        <lane id=":12257754085_11_0" index="0" disallow="tram rail_urban rail rail_electric rail_fast ship container cable_car subway aircraft wheelchair scooter drone" speed="3.65" length="3.23" shape="8704.56,3256.12 8703.77,3256.54 8702.96,3256.15 8702.14,3254.96"/>
    </edge>
    <edge id=":12257754093_0" function="internal">
        <lane id=":12257754093_0_0" index="0" disallow="tram rail_urban rail rail_electric rail_fast ship container cable_car subway aircraft wheelchair scooter drone" speed="6.55" length="9.08" shape="9017.49,3253.30 9016.99,3250.85 9015.83,3249.14 9014.03,3248.17 9011.56,3247.95"/>
    </edge>
    <edge id=":12257754093_1" function="internal">
        <lane id=":12257754093_1_0" index="0" disallow="tram rail_urban rail rail_electric rail_fast ship container cable_car subway aircraft wheelchair scooter drone" speed="7.98" length="14.23" shape="9017.49,3253.30 9017.80,3249.40 9019.29,3246.56 9021.95,3244.76 9025.78,3244.01"/>
    </edge>
    <edge id=":12257754093_2" function="internal">
        <lane id=":12257754093_2_0" index="0" disallow="tram rail_urban rail rail_electric rail_fast ship container cable_car subway aircraft wheelchair scooter drone" speed="3.65" length="4.67" shape="9017.49,3253.30 9018.21,3252.05 9018.99,3251.60 9019.81,3251.95 9020.68,3253.10"/>
    </edge>
    <edge id=":12257754093_3" function="internal">
        <lane id=":12257754093_3_0" index="0" disallow="tram rail_urban rail rail_electric rail_fast ship container cable_car subway aircraft wheelchair scooter drone" speed="6.49" length="9.03" shape="9025.94,3247.21 9023.51,3247.68 9021.82,3248.82 9020.88,3250.63 9020.68,3253.10"/>
    </edge>
    <edge id=":12257754093_4" function="internal">
        <lane id=":12257754093_4_0" index="0" disallow="tram rail_urban rail rail_electric rail_fast ship container cable_car subway aircraft wheelchair scooter drone" speed="22.22" length="14.40" shape="9025.94,3247.21 9011.56,3247.95"/>
    </edge>
    <edge id=":12257754093_5" function="internal">
        <lane id=":12257754093_5_0" index="0" disallow="tram rail_urban rail rail_electric rail_fast ship container cable_car subway aircraft wheelchair scooter drone" speed="3.65" length="1.44" shape="9025.94,3247.21 9024.71,3246.47"/>
    </edge>
    <edge id=":12257754093_9" function="internal">
        <lane id=":12257754093_9_0" index="0" disallow="tram rail_urban rail rail_electric rail_fast ship container cable_car subway aircraft wheelchair scooter drone" speed="3.65" length="3.23" shape="9024.71,3246.47 9024.26,3245.69 9024.62,3244.87 9025.78,3244.01"/>
    </edge>
    <edge id=":12257754093_6" function="internal">
        <lane id=":12257754093_6_0" index="0" disallow="tram rail_urban rail rail_electric rail_fast ship container cable_car subway aircraft wheelchair scooter drone" speed="22.22" length="14.40" shape="9011.40,3244.75 9025.78,3244.01"/>
    </edge>
    <edge id=":12257754093_7" function="internal">
        <lane id=":12257754093_7_0" index="0" disallow="tram rail_urban rail rail_electric rail_fast ship container cable_car subway aircraft wheelchair scooter drone" speed="8.03" length="4.05" shape="9011.40,3244.75 9015.26,3245.10 9015.41,3245.19"/>
    </edge>
    <edge id=":12257754093_8" function="internal">
        <lane id=":12257754093_8_0" index="0" disallow="tram rail_urban rail rail_electric rail_fast ship container cable_car subway aircraft wheelchair scooter drone" speed="3.65" length="1.44" shape="9011.40,3244.75 9012.64,3245.49"/>
    </edge>
    <edge id=":12257754093_10" function="internal">
        <lane id=":12257754093_10_0" index="0" disallow="tram rail_urban rail rail_electric rail_fast ship container cable_car subway aircraft wheelchair scooter drone" speed="8.03" length="10.16" shape="9015.41,3245.19 9018.09,3246.61 9019.90,3249.28 9020.68,3253.10"/>
    </edge>
    <edge id=":12257754093_11" function="internal">
        <lane id=":12257754093_11_0" index="0" disallow="tram rail_urban rail rail_electric rail_fast ship container cable_car subway aircraft wheelchair scooter drone" speed="3.65" length="3.23" shape="9012.64,3245.49 9013.08,3246.27 9012.72,3247.09 9011.56,3247.95"/>
    </edge>
    <edge id=":12257758208_0" function="internal">