<?xml version='1.0' encoding='utf-8'?>
<routes>
  <vType id="passenger_car" vClass="passenger" />
  <route id="r_perimeter_high_000" edges="-E15 -E15.70 E13 E13.98 E12 E11 E11.123 E10 E9 -E6" />
  <flow id="f_perimeter_high_000" type="passenger_car" route="r_perimeter_high_000" begin="0" end="3600" vehsPerHour="259" departSpeed="max" departLane="best" />
  <route id="r_perimeter_high_001" edges="-E15 -E15.70 E13 E13.98 E12 E11 E11.123 E10 E9 -E6" />
  <flow id="f_perimeter_high_001" type="passenger_car" route="r_perimeter_high_001" begin="0" end="3600" vehsPerHour="218" departSpeed="max" departLane="best" />
  <route id="r_perimeter_high_002" edges="-E15 -E15.70 E13 E13.98 E12 E11 E11.123 E10 E9 -E6 E5" />
  <flow id="f_perimeter_high_002" type="passenger_car" route="r_perimeter_high_002" begin="0" end="3600" vehsPerHour="270" departSpeed="max" departLane="best" />
  <route id="r_perimeter_high_003" edges="-E15 -E15.70 E13 E13.98 E12 E11 E11.123 E10 E9 -E6 E5 -E2 -E1 -E21 -E21.32 -E23 -E23.55 -E23.227 -E26 -E26.30 -E26.180 -E34 -E34.60" />
  <flow id="f_perimeter_high_003" type="passenger_car" route="r_perimeter_high_003" begin="0" end="3600" vehsPerHour="290" departSpeed="max" departLane="best" />
  <route id="r_perimeter_high_004" edges="-E15 -E15.70 E13 E13.98 E12 E11 E11.123 E10 E9 -E6" />
  <flow id="f_perimeter_high_004" type="passenger_car" route="r_perimeter_high_004" begin="0" end="3600" vehsPerHour="321" departSpeed="max" departLane="best" />
  <route id="r_perimeter_high_005" edges="-E15 -E15.70 E16 E17" />
  <flow id="f_perimeter_high_005" type="passenger_car" route="r_perimeter_high_005" begin="0" end="3600" vehsPerHour="201" departSpeed="max" departLane="best" />
  <route id="r_perimeter_high_006" edges="-E15 -E15.70 E13 E13.98 E12 E11 E11.123 E10 E9 -E6 E5 -E2 -E1 -E21 -E21.32 -E23 -E23.55 -E23.227 -E26 -E26.30 -E26.180" />
  <flow id="f_perimeter_high_006" type="passenger_car" route="r_perimeter_high_006" begin="0" end="3600" vehsPerHour="169" departSpeed="max" departLane="best" />
  <route id="r_perimeter_high_007" edges="-E15 -E15.70 E13 E13.98 E12 E11 E11.123 E10 E9 -E6 E5 -E2 -E1 -E21 -E21.32 -E23 -E23.55 -E23.227 -E26 -E26.30 -E26.180 -E34 -E34.60" />
  <flow id="f_perimeter_high_007" type="passenger_car" route="r_perimeter_high_007" begin="0" end="3600" vehsPerHour="171" departSpeed="max" departLane="best" />
  <route id="r_perimeter_high_008" edges="-E15 -E15.70 E13 E13.98 E12 E11 E11.123 E10 E9 -E6 E5 -E2 -E1 -E21 -E21.32 -E23 -E23.55 -E23.227 -E26 -E26.30 -E26.180 -E34 -E34.60" />
  <flow id="f_perimeter_high_008" type="passenger_car" route="r_perimeter_high_008" begin="0" end="3600" vehsPerHour="247" departSpeed="max" departLane="best" />
  <route id="r_perimeter_high_009" edges="-E17 -E16 E15 E15.39" />
  <flow id="f_perimeter_high_009" type="passenger_car" route="r_perimeter_high_009" begin="0" end="3600" vehsPerHour="251" departSpeed="max" departLane="best" />
  <route id="r_perimeter_high_010" edges="-E17 -E16 E15 E15.39" />
  <flow id="f_perimeter_high_010" type="passenger_car" route="r_perimeter_high_010" begin="0" end="3600" vehsPerHour="293" departSpeed="max" departLane="best" />
  <route id="r_perimeter_high_011" edges="-E17 -E16 E13 E13.98 E12 E11 E11.123 E10 E9 -E6 E5 -E2 -E1 -E21 -E21.32 -E23 -E23.55 -E23.227 -E26 -E26.30 -E26.180 -E31" />
  <flow id="f_perimeter_high_011" type="passenger_car" route="r_perimeter_high_011" begin="0" end="3600" vehsPerHour="162" departSpeed="max" departLane="best" />
  <route id="r_perimeter_high_012" edges="-E17 -E16 E15 E15.39" />
  <flow id="f_perimeter_high_012" type="passenger_car" route="r_perimeter_high_012" begin="0" end="3600" vehsPerHour="222" departSpeed="max" departLane="best" />
  <route id="r_perimeter_high_013" edges="-E17 -E16 E15 E15.39" />
  <flow id="f_perimeter_high_013" type="passenger_car" route="r_perimeter_high_013" begin="0" end="3600" vehsPerHour="276" departSpeed="max" departLane="best" />
  <route id="r_perimeter_high_014" edges="-E17 -E16 E15 E15.39" />
  <flow id="f_perimeter_high_014" type="passenger_car" route="r_perimeter_high_014" begin="0" end="3600" vehsPerHour="165" departSpeed="max" departLane="best" />
  <route id="r_perimeter_high_015" edges="-E17 -E16 E15 E15.39" />
  <flow id="f_perimeter_high_015" type="passenger_car" route="r_perimeter_high_015" begin="0" end="3600" vehsPerHour="185" departSpeed="max" departLane="best" />
  <route id="r_perimeter_high_016" edges="-E17 -E16 E13 E13.98 E12 E11 E11.123 E10 E9 -E6 E5 -E2 -E1 -E21 -E21.32 -E23 -E23.55 -E23.227 -E26 -E26.30 -E26.180 E32 E33" />
  <flow id="f_perimeter_high_016" type="passenger_car" route="r_perimeter_high_016" begin="0" end="3600" vehsPerHour="316" departSpeed="max" departLane="best" />
  <route id="r_perimeter_high_017" edges="-E17 -E16 E15 E15.39" />
  <flow id="f_perimeter_high_017" type="passenger_car" route="r_perimeter_high_017" begin="0" end="3600" vehsPerHour="276" departSpeed="max" departLane="best" />
  <route id="r_perimeter_high_018" edges="E40 E41 E38 E39" />
  <flow id="f_perimeter_high_018" type="passenger_car" route="r_perimeter_high_018" begin="0" end="3600" vehsPerHour="182" departSpeed="max" departLane="best" />
  <route id="r_perimeter_high_019" edges="E40 E41 E38 E39" />
  <flow id="f_perimeter_high_019" type="passenger_car" route="r_perimeter_high_019" begin="0" end="3600" vehsPerHour="334" departSpeed="max" departLane="best" />
  <route id="r_perimeter_high_020" edges="E40 E41 E38 E39" />
  <flow id="f_perimeter_high_020" type="passenger_car" route="r_perimeter_high_020" begin="0" end="3600" vehsPerHour="214" departSpeed="max" departLane="best" />
  <route id="r_perimeter_high_021" edges="E40 E41 E38 E39" />
  <flow id="f_perimeter_high_021" type="passenger_car" route="r_perimeter_high_021" begin="0" end="3600" vehsPerHour="251" departSpeed="max" departLane="best" />
  <route id="r_perimeter_high_022" edges="E40 E41 E38 E39" />
  <flow id="f_perimeter_high_022" type="passenger_car" route="r_perimeter_high_022" begin="0" end="3600" vehsPerHour="219" departSpeed="max" departLane="best" />
  <route id="r_perimeter_high_023" edges="E40 E41 E38 E39" />
  <flow id="f_perimeter_high_023" type="passenger_car" route="r_perimeter_high_023" begin="0" end="3600" vehsPerHour="207" departSpeed="max" departLane="best" />
  <route id="r_perimeter_high_024" edges="E40 E41 E38 E39" />
  <flow id="f_perimeter_high_024" type="passenger_car" route="r_perimeter_high_024" begin="0" end="3600" vehsPerHour="291" departSpeed="max" departLane="best" />
  <route id="r_perimeter_high_025" edges="E40 E41 E38 E39" />
  <flow id="f_perimeter_high_025" type="passenger_car" route="r_perimeter_high_025" begin="0" end="3600" vehsPerHour="222" departSpeed="max" departLane="best" />
  <route id="r_perimeter_high_026" edges="E40 E41 E38 E39" />
  <flow id="f_perimeter_high_026" type="passenger_car" route="r_perimeter_high_026" begin="0" end="3600" vehsPerHour="226" departSpeed="max" departLane="best" />
  <route id="r_perimeter_high_027" edges="-E39 -E38 -E41 -E40" />
  <flow id="f_perimeter_high_027" type="passenger_car" route="r_perimeter_high_027" begin="0" end="3600" vehsPerHour="199" departSpeed="max" departLane="best" />
  <route id="r_perimeter_high_028" edges="-E39 -E38 -E41 -E40" />
  <flow id="f_perimeter_high_028" type="passenger_car" route="r_perimeter_high_028" begin="0" end="3600" vehsPerHour="242" departSpeed="max" departLane="best" />
  <route id="r_perimeter_high_029" edges="-E39 -E38 -E41 -E40" />
  <flow id="f_perimeter_high_029" type="passenger_car" route="r_perimeter_high_029" begin="0" end="3600" vehsPerHour="298" departSpeed="max" departLane="best" />
  <route id="r_perimeter_high_030" edges="-E39 -E38 -E41 -E40" />
  <flow id="f_perimeter_high_030" type="passenger_car" route="r_perimeter_high_030" begin="0" end="3600" vehsPerHour="198" departSpeed="max" departLane="best" />
  <route id="r_perimeter_high_031" edges="-E39 -E38 -E41 -E40" />
  <flow id="f_perimeter_high_031" type="passenger_car" route="r_perimeter_high_031" begin="0" end="3600" vehsPerHour="214" departSpeed="max" departLane="best" />
  <route id="r_perimeter_high_032" edges="-E39 -E38 -E41 -E40" />
  <flow id="f_perimeter_high_032" type="passenger_car" route="r_perimeter_high_032" begin="0" end="3600" vehsPerHour="300" departSpeed="max" departLane="best" />
  <route id="r_perimeter_high_033" edges="-E39 -E38 -E41 -E40" />
  <flow id="f_perimeter_high_033" type="passenger_car" route="r_perimeter_high_033" begin="0" end="3600" vehsPerHour="237" departSpeed="max" departLane="best" />
  <route id="r_perimeter_high_034" edges="-E39 -E38 -E41 -E40" />
  <flow id="f_perimeter_high_034" type="passenger_car" route="r_perimeter_high_034" begin="0" end="3600" vehsPerHour="170" departSpeed="max" departLane="best" />
  <route id="r_perimeter_high_035" edges="-E39 -E38 -E41 -E40" />
  <flow id="f_perimeter_high_035" type="passenger_car" route="r_perimeter_high_035" begin="0" end="3600" vehsPerHour="288" departSpeed="max" departLane="best" />
  <route id="r_perimeter_high_036" edges="E31 E31.70 E32 E33" />
  <flow id="f_perimeter_high_036" type="passenger_car" route="r_perimeter_high_036" begin="0" end="3600" vehsPerHour="271" departSpeed="max" departLane="best" />
  <route id="r_perimeter_high_037" edges="E31 E31.70 E26 E26.73 E26.232 E23 E23.54 E23.226 E21 E21.77 E1" />
  <flow id="f_perimeter_high_037" type="passenger_car" route="r_perimeter_high_037" begin="0" end="3600" vehsPerHour="231" departSpeed="max" departLane="best" />
  <route id="r_perimeter_high_038" edges="E31 E31.70 E32 E33" />
  <flow id="f_perimeter_high_038" type="passenger_car" route="r_perimeter_high_038" begin="0" end="3600" vehsPerHour="230" departSpeed="max" departLane="best" />
  <route id="r_perimeter_high_039" edges="E31 E31.70 E32 E33" />
  <flow id="f_perimeter_high_039" type="passenger_car" route="r_perimeter_high_039" begin="0" end="3600" vehsPerHour="356" departSpeed="max" departLane="best" />
  <route id="r_perimeter_high_040" edges="E31 E31.70 E26 E26.73 E26.232 E23 E23.54 E23.226 E21 E21.77 E1" />
  <flow id="f_perimeter_high_040" type="passenger_car" route="r_perimeter_high_040" begin="0" end="3600" vehsPerHour="309" departSpeed="max" departLane="best" />
  <route id="r_perimeter_high_041" edges="E31 E31.70 E32 E33" />
  <flow id="f_perimeter_high_041" type="passenger_car" route="r_perimeter_high_041" begin="0" end="3600" vehsPerHour="243" departSpeed="max" departLane="best" />
  <route id="r_perimeter_high_042" edges="E31 E31.70 E26 E26.73 E26.232 E23 E23.54 E23.226 E21 E21.77 E1" />
  <flow id="f_perimeter_high_042" type="passenger_car" route="r_perimeter_high_042" begin="0" end="3600" vehsPerHour="255" departSpeed="max" departLane="best" />
  <route id="r_perimeter_high_043" edges="E31 E31.70 E32 E33" />
  <flow id="f_perimeter_high_043" type="passenger_car" route="r_perimeter_high_043" begin="0" end="3600" vehsPerHour="251" departSpeed="max" departLane="best" />
  <route id="r_perimeter_high_044" edges="-E33 -E32 -E31 -E31.49" />
  <flow id="f_perimeter_high_044" type="passenger_car" route="r_perimeter_high_044" begin="0" end="3600" vehsPerHour="247" departSpeed="max" departLane="best" />
  <route id="r_perimeter_high_045" edges="-E33 -E32 -E31 -E31.49" />
  <flow id="f_perimeter_high_045" type="passenger_car" route="r_perimeter_high_045" begin="0" end="3600" vehsPerHour="290" departSpeed="max" departLane="best" />
  <route id="r_perimeter_high_046" edges="-E33 -E32 -E31 -E31.49" />
  <flow id="f_perimeter_high_046" type="passenger_car" route="r_perimeter_high_046" begin="0" end="3600" vehsPerHour="235" departSpeed="max" departLane="best" />
  <route id="r_perimeter_high_047" edges="-E33 -E32 -E31 -E31.49" />
  <flow id="f_perimeter_high_047" type="passenger_car" route="r_perimeter_high_047" begin="0" end="3600" vehsPerHour="318" departSpeed="max" departLane="best" />
  <route id="r_perimeter_high_048" edges="-E33 -E32 -E31 -E31.49" />
  <flow id="f_perimeter_high_048" type="passenger_car" route="r_perimeter_high_048" begin="0" end="3600" vehsPerHour="317" departSpeed="max" departLane="best" />
  <route id="r_perimeter_high_049" edges="-E33 -E32 -E31 -E31.49" />
  <flow id="f_perimeter_high_049" type="passenger_car" route="r_perimeter_high_049" begin="0" end="3600" vehsPerHour="324" departSpeed="max" departLane="best" />
  <route id="r_perimeter_high_050" edges="-E33 -E32 -E31 -E31.49" />
  <flow id="f_perimeter_high_050" type="passenger_car" route="r_perimeter_high_050" begin="0" end="3600" vehsPerHour="203" departSpeed="max" departLane="best" />
  <route id="r_perimeter_high_051" edges="-E33 -E32 -E31 -E31.49" />
  <flow id="f_perimeter_high_051" type="passenger_car" route="r_perimeter_high_051" begin="0" end="3600" vehsPerHour="211" departSpeed="max" departLane="best" />
  <route id="r_perimeter_low_000" edges="-E4 E3 -E2 -E1 -E21 -E21.32 -E23 -E23.55 -E23.227 -E26 -E26.30 -E26.180 -E34 -E34.60" />
  <flow id="f_perimeter_low_000" type="passenger_car" route="r_perimeter_low_000" begin="0" end="3600" vehsPerHour="250" departSpeed="max" departLane="best" />
  <route id="r_perimeter_low_001" edges="-E4 E3 -E2 -E1 -E21 -E21.32 -E23 -E23.55 -E23.227 158074689#2 158074689#3 -158074689#3" />
  <flow id="f_perimeter_low_001" type="passenger_car" route="r_perimeter_low_001" begin="0" end="3600" vehsPerHour="213" departSpeed="max" departLane="best" />
  <route id="r_perimeter_low_002" edges="-E4 E3 -E2 -E1 -E21" />
  <flow id="f_perimeter_low_002" type="passenger_car" route="r_perimeter_low_002" begin="0" end="3600" vehsPerHour="294" departSpeed="max" departLane="best" />
  <route id="r_perimeter_low_003" edges="-E4 E3 -E2 -E1 -E21 -E21.32 -E23 -E23.55 -E23.227 -E26 -E26.30 -E26.180 -E34 -E34.60" />
  <flow id="f_perimeter_low_003" type="passenger_car" route="r_perimeter_low_003" begin="0" end="3600" vehsPerHour="174" departSpeed="max" departLane="best" />
  <route id="r_perimeter_low_004" edges="-E4 E3 -E2 -E1 -E21 -E21.32 -E23 -E23.55 -E23.227 -E26 -E26.30 -E26.180 -E34 -E34.60" />
  <flow id="f_perimeter_low_004" type="passenger_car" route="r_perimeter_low_004" begin="0" end="3600" vehsPerHour="197" departSpeed="max" departLane="best" />
  <route id="r_perimeter_low_005" edges="143009830#0.1574 143009830#0.1693 E10 E9" />
  <flow id="f_perimeter_low_005" type="passenger_car" route="r_perimeter_low_005" begin="0" end="3600" vehsPerHour="277" departSpeed="max" departLane="best" />
  <route id="r_perimeter_low_006" edges="143009830#0.1574 143009830#0.1693 E10 E9 -E6 E5 -E2 -E1 -E21 -E21.32 -E23 -E23.55 -E23.227 -E26 -E26.30 -E26.180 -E34 -E34.60" />
  <flow id="f_perimeter_low_006" type="passenger_car" route="r_perimeter_low_006" begin="0" end="3600" vehsPerHour="264" departSpeed="max" departLane="best" />
  <route id="r_perimeter_low_007" edges="143009830#0.1574 143009830#0.1693 E10 E9 -E6 E5" />
  <flow id="f_perimeter_low_007" type="passenger_car" route="r_perimeter_low_007" begin="0" end="3600" vehsPerHour="264" departSpeed="max" departLane="best" />
  <route id="r_perimeter_low_008" edges="143009830#0.1574 143009830#0.1693 E10 E9 -E6 E5 -E2 -E1 -E21 -E21.32 -E23 -E23.55 -E23.227" />
  <flow id="f_perimeter_low_008" type="passenger_car" route="r_perimeter_low_008" begin="0" end="3600" vehsPerHour="156" departSpeed="max" departLane="best" />
  <route id="r_perimeter_low_009" edges="143009830#0.1574 143009830#0.1693 E10 E9 -E6 E5 -E2 -E1 -E21 -E21.32 -E23 -E23.55 -E23.227 -E26 -E26.30" />
  <flow id="f_perimeter_low_009" type="passenger_car" route="r_perimeter_low_009" begin="0" end="3600" vehsPerHour="167" departSpeed="max" departLane="best" />
  <route id="r_perimeter_low_010" edges="-143009874.1041 -143009874.1161 E11 E11.123 E10 E9 -E6 E5 -E2 -E1 -E21 -E21.32 -E23 -E23.55 -E23.227 -E26" />
  <flow id="f_perimeter_low_010" type="passenger_car" route="r_perimeter_low_010" begin="0" end="3600" vehsPerHour="285" departSpeed="max" departLane="best" />
  <route id="r_perimeter_low_011" edges="-143009874.1041 -143009874.1161 E11 E11.123 E10 E9 -E6 E5 -E2 -E1 -E21 -E21.32 -E23 -E23.55 -E23.227 -E26 -E26.30 -E26.180 -E31" />
  <flow id="f_perimeter_low_011" type="passenger_car" route="r_perimeter_low_011" begin="0" end="3600" vehsPerHour="148" departSpeed="max" departLane="best" />
  <route id="r_perimeter_low_012" edges="-143009874.1041 -143009874.1161 E11 E11.123 E10 E9 -E6 E5 -E2 -E1 -E21 -E21.32 -E23 -E23.55 -E23.227 -E26 -E26.30 -E26.180 -E31" />
  <flow id="f_perimeter_low_012" type="passenger_car" route="r_perimeter_low_012" begin="0" end="3600" vehsPerHour="258" departSpeed="max" departLane="best" />
  <route id="r_perimeter_low_013" edges="-143009874.1041 -143009874.1161 E11 E11.123 E10 E9 -E6 E5 -E2 -E1 -E21 -E21.32 -E23 -E23.55 -E23.227 -158074689#1 158074689#1 E23 E23.54 E23.226" />
  <flow id="f_perimeter_low_013" type="passenger_car" route="r_perimeter_low_013" begin="0" end="3600" vehsPerHour="276" departSpeed="max" departLane="best" />
  <route id="r_perimeter_low_014" edges="-143009874.1041 -143009874.1161 E11 E11.123 E10 E9 -E6 E5 -E2 -E1 -E21 -E21.32 -E23 -E23.55 -E23.227 -E26 -E26.30" />
  <flow id="f_perimeter_low_014" type="passenger_car" route="r_perimeter_low_014" begin="0" end="3600" vehsPerHour="160" departSpeed="max" departLane="best" />
  <route id="r_perimeter_low_015" edges="E23.226 E21 E21.77 E1 E2 -E3 E4" />
  <flow id="f_perimeter_low_015" type="passenger_car" route="r_perimeter_low_015" begin="0" end="3600" vehsPerHour="229" departSpeed="max" departLane="best" />
  <route id="r_perimeter_low_016" edges="E23.226 E21 E21.77 E1 E2 E7" />
  <flow id="f_perimeter_low_016" type="passenger_car" route="r_perimeter_low_016" begin="0" end="3600" vehsPerHour="217" departSpeed="max" departLane="best" />
  <route id="r_perimeter_low_017" edges="E23.226 E21 E21.77 E1 E2 E7" />
  <flow id="f_perimeter_low_017" type="passenger_car" route="r_perimeter_low_017" begin="0" end="3600" vehsPerHour="191" departSpeed="max" departLane="best" />
  <route id="r_perimeter_low_018" edges="E23.226 E21 E21.77 E1 E2 -E3 E4" />
  <flow id="f_perimeter_low_018" type="passenger_car" route="r_perimeter_low_018" begin="0" end="3600" vehsPerHour="272" departSpeed="max" departLane="best" />
  <route id="r_perimeter_low_019" edges="E23.226 E21 E21.77 E1 E2 -E3" />
  <flow id="f_perimeter_low_019" type="passenger_car" route="r_perimeter_low_019" begin="0" end="3600" vehsPerHour="218" departSpeed="max" departLane="best" />
  <route id="r_perimeter_low_020" edges="-E27 158074689#1 -E26 -E26.30" />
  <flow id="f_perimeter_low_020" type="passenger_car" route="r_perimeter_low_020" begin="0" end="3600" vehsPerHour="259" departSpeed="max" departLane="best" />
  <route id="r_perimeter_low_021" edges="-E27 158074689#1 E23 E23.54 E23.226 E21 E21.77 E1 E2 -E5" />
  <flow id="f_perimeter_low_021" type="passenger_car" route="r_perimeter_low_021" begin="0" end="3600" vehsPerHour="301" departSpeed="max" departLane="best" />
  <route id="r_perimeter_low_022" edges="-E27 158074689#1 E23 E23.54" />
  <flow id="f_perimeter_low_022" type="passenger_car" route="r_perimeter_low_022" begin="0" end="3600" vehsPerHour="331" departSpeed="max" departLane="best" />
  <route id="r_perimeter_low_023" edges="-E27 158074689#1 -E26 -E26.30 -E26.180 -E31 -E31.49" />
  <flow id="f_perimeter_low_023" type="passenger_car" route="r_perimeter_low_023" begin="0" end="3600" vehsPerHour="236" departSpeed="max" departLane="best" />
  <route id="r_perimeter_low_024" edges="-472652453#5.1331 -472652453#5.1437 -472652453#5.1519 -158074689#4 -158074689#3 -158074689#2 -E26 -E26.30 -E26.180 -E34 -E34.60" />
  <flow id="f_perimeter_low_024" type="passenger_car" route="r_perimeter_low_024" begin="0" end="3600" vehsPerHour="240" departSpeed="max" departLane="best" />
  <route id="r_perimeter_low_025" edges="-472652453#5.1331 -472652453#5.1437 -E35 -E35.87" />
  <flow id="f_perimeter_low_025" type="passenger_car" route="r_perimeter_low_025" begin="0" end="3600" vehsPerHour="380" departSpeed="max" departLane="best" />
  <route id="r_perimeter_low_026" edges="-472652453#5.1331 -472652453#5.1437 -E35 -E35.87" />
  <flow id="f_perimeter_low_026" type="passenger_car" route="r_perimeter_low_026" begin="0" end="3600" vehsPerHour="272" departSpeed="max" departLane="best" />
  <route id="r_perimeter_low_027" edges="-472652453#5.1331 -472652453#5.1437 -E35 -E35.87" />
  <flow id="f_perimeter_low_027" type="passenger_car" route="r_perimeter_low_027" begin="0" end="3600" vehsPerHour="235" departSpeed="max" departLane="best" />
  <route id="r_perimeter_low_028" edges="E29 472645993#4 -1324604419#1 -1324604421 158176575#1 158176575#2 158176575#2.141 -472652453#2 -472652453#1 -472652453#1.89 E10 E9 -E6 E5 -E2 -E1 -E21 -E21.32" />
  <flow id="f_perimeter_low_028" type="passenger_car" route="r_perimeter_low_028" begin="0" end="3600" vehsPerHour="211" departSpeed="max" departLane="best" />
  <route id="r_perimeter_low_029" edges="E29 472645993#4 -E28 -E30 -E30.41 -E30.210 E38 E39" />
  <flow id="f_perimeter_low_029" type="passenger_car" route="r_perimeter_low_029" begin="0" end="3600" vehsPerHour="317" departSpeed="max" departLane="best" />
  <route id="r_perimeter_low_030" edges="E29 472645993#4 -1324604419#1 -1324604421 158176575#1 158176575#2 158176575#2.141 -472652453#2 -472652453#1 -472652453#1.89 E10 E9 -E6 E5 E7" />
  <flow id="f_perimeter_low_030" type="passenger_car" route="r_perimeter_low_030" begin="0" end="3600" vehsPerHour="225" departSpeed="max" departLane="best" />
  <route id="r_perimeter_low_031" edges="E29 472645993#4 -E28 -E30 -E30.41 -E30.210 E38 E39" />
  <flow id="f_perimeter_low_031" type="passenger_car" route="r_perimeter_low_031" begin="0" end="3600" vehsPerHour="374" departSpeed="max" departLane="best" />
  <route id="r_internal_high_000" edges="-E15 -E15.70 E13" />
  <flow id="f_internal_high_000" type="passenger_car" route="r_internal_high_000" begin="0" end="3600" vehsPerHour="289" departSpeed="max" departLane="best" />
  <route id="r_internal_high_001" edges="-E15 -E15.70 -E18 -E18.45 -158176572#1 -158176572#0 -1185749030#2 1324604425" />
  <flow id="f_internal_high_001" type="passenger_car" route="r_internal_high_001" begin="0" end="3600" vehsPerHour="167" departSpeed="max" departLane="best" />
  <route id="r_internal_high_002" edges="-E15 -E15.70 -E18 -E18.45 -E22 -E22.37 1324682272#2.123 1324682272#2.123.123" />
  <flow id="f_internal_high_002" type="passenger_car" route="r_internal_high_002" begin="0" end="3600" vehsPerHour="284" departSpeed="max" departLane="best" />
  <route id="r_internal_high_003" edges="-E15 -E15.70 -E18 -E18.45" />
  <flow id="f_internal_high_003" type="passenger_car" route="r_internal_high_003" begin="0" end="3600" vehsPerHour="180" departSpeed="max" departLane="best" />
  <route id="r_internal_high_004" edges="-E17 -E16 -E18 -E18.45 -158176572#1 -158176572#0 -1185749030#2 -1185749030#1 1185749030#1" />
  <flow id="f_internal_high_004" type="passenger_car" route="r_internal_high_004" begin="0" end="3600" vehsPerHour="256" departSpeed="max" departLane="best" />
  <route id="r_internal_high_005" edges="-E17 -E16 -E18 -E18.45 -158176572#1 158176573 1324604421 -1324604421" />
  <flow id="f_internal_high_005" type="passenger_car" route="r_internal_high_005" begin="0" end="3600" vehsPerHour="280" departSpeed="max" departLane="best" />
  <route id="r_internal_high_006" edges="-E17 -E16 -E18 -E18.45 -E22" />
  <flow id="f_internal_high_006" type="passenger_car" route="r_internal_high_006" begin="0" end="3600" vehsPerHour="190" departSpeed="max" departLane="best" />
  <route id="r_internal_high_007" edges="-E17 -E16 E13 E13.98 E12 E19" />
  <flow id="f_internal_high_007" type="passenger_car" route="r_internal_high_007" begin="0" end="3600" vehsPerHour="194" departSpeed="max" departLane="best" />
  <route id="r_internal_high_008" edges="E40 E41 E35 E35.84 E35.389 E34 E34.112 E34.355 E26 E26.73 E26.232 E23 E23.54 E23.226 -158176575#3 -158176575#3.354" />
  <flow id="f_internal_high_008" type="passenger_car" route="r_internal_high_008" begin="0" end="3600" vehsPerHour="320" departSpeed="max" departLane="best" />
  <route id="r_internal_high_009" edges="E40 E41 E35" />
  <flow id="f_internal_high_009" type="passenger_car" route="r_internal_high_009" begin="0" end="3600" vehsPerHour="157" departSpeed="max" departLane="best" />
  <route id="r_internal_high_010" edges="E40 E41 E30 E30.60 E30.228" />
  <flow id="f_internal_high_010" type="passenger_car" route="r_internal_high_010" begin="0" end="3600" vehsPerHour="246" departSpeed="max" departLane="best" />
  <route id="r_internal_high_011" edges="E40 E41 E30" />
  <flow id="f_internal_high_011" type="passenger_car" route="r_internal_high_011" begin="0" end="3600" vehsPerHour="197" departSpeed="max" departLane="best" />
  <route id="r_internal_high_012" edges="-E39 -E38 E35 E35.84 E35.389 -472652453#5.1519 158074689#5" />
  <flow id="f_internal_high_012" type="passenger_car" route="r_internal_high_012" begin="0" end="3600" vehsPerHour="197" departSpeed="max" departLane="best" />
  <route id="r_internal_high_013" edges="-E39 -E38 E30 E30.60 E30.228 E28 -472645993#4 472645993#4 -1324604419#1 -1324604421 -158176575#0 1324682272#2.123" />
  <flow id="f_internal_high_013" type="passenger_car" route="r_internal_high_013" begin="0" end="3600" vehsPerHour="243" departSpeed="max" departLane="best" />
  <route id="r_internal_high_014" edges="-E39 -E38 E30 E30.60 E30.228 E28 -472645993#4 472645993#4 -1324604419#1 -1324604421 -158176573" />
  <flow id="f_internal_high_014" type="passenger_car" route="r_internal_high_014" begin="0" end="3600" vehsPerHour="233" departSpeed="max" departLane="best" />
  <route id="r_internal_high_015" edges="-E39 -E38 E35 E35.84 E35.389 472652453#5.1437 472652453#5.1331" />
  <flow id="f_internal_high_015" type="passenger_car" route="r_internal_high_015" begin="0" end="3600" vehsPerHour="246" departSpeed="max" departLane="best" />
  <route id="r_internal_high_016" edges="E31 E31.70 E26 E26.73 E26.232 158074689#2 158074689#3 158074689#4 -472652453#4 -472652453#4.38 1324604419#0" />
  <flow id="f_internal_high_016" type="passenger_car" route="r_internal_high_016" begin="0" end="3600" vehsPerHour="283" departSpeed="max" departLane="best" />
  <route id="r_internal_high_017" edges="E31 E31.70 E26 E26.73 E26.232 E23 E23.54 E23.226 E21 E21.77 E1 E2 -E5 E6 -E9 -E10 -E11 -E11.60 -E12 -E13 -E13.88 -E18 -E18.45" />
  <flow id="f_internal_high_017" type="passenger_car" route="r_internal_high_017" begin="0" end="3600" vehsPerHour="261" departSpeed="max" departLane="best" />
  <route id="r_internal_high_018" edges="E31 E31.70 -E34 -E34.60 -E34.301 -E35 -E35.87 -E35.389 E30 E30.60 E30.228" />
  <flow id="f_internal_high_018" type="passenger_car" route="r_internal_high_018" begin="0" end="3600" vehsPerHour="375" departSpeed="max" departLane="best" />
  <route id="r_internal_high_019" edges="-E33 -E32 E26 E26.73 E26.232 158074689#2" />
  <flow id="f_internal_high_019" type="passenger_car" route="r_internal_high_019" begin="0" end="3600" vehsPerHour="262" departSpeed="max" departLane="best" />
  <route id="r_internal_high_020" edges="-E33 -E32 E26 E26.73 E26.232 158074689#2 158074689#3 158074689#4 -472652453#4" />
  <flow id="f_internal_high_020" type="passenger_car" route="r_internal_high_020" begin="0" end="3600" vehsPerHour="250" departSpeed="max" departLane="best" />
  <route id="r_internal_high_021" edges="-E33 -E32 E26" />
  <flow id="f_internal_high_021" type="passenger_car" route="r_internal_high_021" begin="0" end="3600" vehsPerHour="407" departSpeed="max" departLane="best" />
  <route id="r_internal_low_000" edges="-E4 E3 -E5 E6 -158176580 1185749030#1" />
  <flow id="f_internal_low_000" type="passenger_car" route="r_internal_low_000" begin="0" end="3600" vehsPerHour="235" departSpeed="max" departLane="best" />
  <route id="r_internal_low_001" edges="-E4 E3 -E2 -E1 -E21 -E21.32 -158176575#3" />
  <flow id="f_internal_low_001" type="passenger_car" route="r_internal_low_001" begin="0" end="3600" vehsPerHour="249" departSpeed="max" departLane="best" />
  <route id="r_internal_low_002" edges="143009830#0.1574 143009830#0.1693 472652453#1 -1185749030#2 -1185749030#1 158176580" />
  <flow id="f_internal_low_002" type="passenger_car" route="r_internal_low_002" begin="0" end="3600" vehsPerHour="256" departSpeed="max" departLane="best" />
  <route id="r_internal_low_003" edges="143009830#0.1574 143009830#0.1693 E10 E9 -E6 E5 -E2 -E1 -E21 -E21.32 -158176575#3" />
  <flow id="f_internal_low_003" type="passenger_car" route="r_internal_low_003" begin="0" end="3600" vehsPerHour="227" departSpeed="max" departLane="best" />
  <route id="r_internal_low_004" edges="-143009874.1041 -143009874.1161 E11 E11.123 -143009830#0 143009830#0.1693 -E11 -E11.60 -E12 -E13 -E13.88" />
  <flow id="f_internal_low_004" type="passenger_car" route="r_internal_low_004" begin="0" end="3600" vehsPerHour="233" departSpeed="max" departLane="best" />
  <route id="r_internal_low_005" edges="-143009874.1041 -143009874.1161 E11 E11.123 -143009830#0 143009830#0.1693 -E11 -E11.60 -E12 -E13" />
  <flow id="f_internal_low_005" type="passenger_car" route="r_internal_low_005" begin="0" end="3600" vehsPerHour="250" departSpeed="max" departLane="best" />
  <route id="r_internal_low_006" edges="E23.226 E21 E21.77 E1 E2" />
  <flow id="f_internal_low_006" type="passenger_car" route="r_internal_low_006" begin="0" end="3600" vehsPerHour="272" departSpeed="max" departLane="best" />
  <route id="r_internal_low_007" edges="E23.226 E21 E21.77 E1 E2 -E5 E6 -E9 -E10 -E11 -E11.60 -E12 -E13 -E13.88" />
  <flow id="f_internal_low_007" type="passenger_car" route="r_internal_low_007" begin="0" end="3600" vehsPerHour="211" departSpeed="max" departLane="best" />
  <route id="r_internal_low_008" edges="-E27 158074689#1 -E26 -E26.30 -E26.180 -E34 -E34.60 -E34.301 -E35 -E35.87 -E35.389 E30 E30.60" />