<?xml version='1.0' encoding='UTF-8'?>
<routes>
  <vType id="passenger_car" vClass="passenger" />
  <flow id="f_0" type="passenger_car" begin="0" end="3600" from="-E17" to="E25" vehsPerHour="80" departSpeed="max" departLane="best" />     
  <flow id="f_1" type="passenger_car" begin="0" end="3600" from="-472652453#5.1331" to="E4" vehsPerHour="624" departSpeed="max" departLane="best" />
  <flow id="f_2" type="passenger_car" begin="0" end="3600" from="-E33" to="E35.389" vehsPerHour="564" departSpeed="max" departLane="best" />
  <flow id="f_3" type="passenger_car" begin="0" end="3600" from="158176575#3" to="-E40" vehsPerHour="300" departSpeed="max" departLane="best" />
  <flow id="f_4" type="passenger_car" begin="0" end="3600" from="-E27" to="-E31.49" vehsPerHour="510" departSpeed="max" departLane="best" />
  <flow id="f_5" type="passenger_car" begin="0" end="3600" from="-E15" to="-472652453#1.89" vehsPerHour="481" departSpeed="max" departLane="best" />
  <flow id="f_6" type="passenger_car" begin="0" end="3600" from="E31" to="E15.39" vehsPerHour="631" departSpeed="max" departLane="best" />  
  <flow id="f_7" type="passenger_car" begin="0" end="3600" from="-E4" to="-E29" vehsPerHour="510" departSpeed="max" departLane="best" />    
  <flow id="f_8" type="passenger_car" begin="0" end="3600" from="-E13" to="E17" vehsPerHour="211" departSpeed="max" departLane="best" />    
  <flow id="f_9" type="passenger_car" begin="0" end="3600" from="E31" to="E39" vehsPerHour="241" departSpeed="max" departLane="best" />     
  <flow id="f_10" type="passenger_car" begin="0" end="3600" from="-158176575#0" to="-E40" vehsPerHour="601" departSpeed="max" departLane="best" />
  <flow id="f_11" type="passenger_car" begin="0" end="3600" from="-E4" to="472652453#5.1331" vehsPerHour="510" departSpeed="max" departLane="best" />
  <flow id="f_12" type="passenger_car" begin="0" end="3600" from="E26.73" to="-E23.55" vehsPerHour="30" departSpeed="max" departLane="best" />
  <flow id="f_13" type="passenger_car" begin="0" end="3600" from="E17" to="E15.39" vehsPerHour="211" departSpeed="max" departLane="best" /> 
  <flow id="f_14" type="passenger_car" begin="0" end="3600" from="E7" to="-E35" vehsPerHour="30" departSpeed="max" departLane="best" />     
  <flow id="f_15" type="passenger_car" begin="0" end="3600" from="158176575#2.141" to="1324682272#2.123" vehsPerHour="30" departSpeed="max" departLane="best" />
  <flow id="f_16" type="passenger_car" begin="0" end="3600" from="E31" to="E33" vehsPerHour="241" departSpeed="max" departLane="best" />    
  <flow id="f_17" type="passenger_car" begin="0" end="3600" from="-E15" to="E15.39" vehsPerHour="241" departSpeed="max" departLane="best" />
  <flow id="f_18" type="passenger_car" begin="0" end="3600" from="-472652453#4.38" to="E34.355" vehsPerHour="30" departSpeed="max" departLane="best" />
  <flow id="f_19" type="passenger_car" begin="0" end="3600" from="E40" to="-E40" vehsPerHour="402" departSpeed="max" departLane="best" />   
  <flow id="f_20" type="passenger_car" begin="0" end="3600" from="E31" to="E39" vehsPerHour="241" departSpeed="max" departLane="best" />    
  <flow id="f_21" type="passenger_car" begin="0" end="3600" from="-143009874.1041" to="143009830#0.1574" vehsPerHour="307" departSpeed="max" departLane="best" />
  <flow id="f_22" type="passenger_car" begin="0" end="3600" from="-E39" to="E25" vehsPerHour="510" departSpeed="max" departLane="best" />   
  <flow id="f_23" type="passenger_car" begin="0" end="3600" from="-E30.210" to="-E40" vehsPerHour="587" departSpeed="max" departLane="best" />
  <flow id="f_24" type="passenger_car" begin="0" end="3600" from="-158176575#0" to="E8" vehsPerHour="120" departSpeed="max" departLane="best" />
  <flow id="f_25" type="passenger_car" begin="0" end="3600" from="-143009874.1041" to="-E31.49" vehsPerHour="30" departSpeed="max" departLane="best" />
  <flow id="f_26" type="passenger_car" begin="0" end="3600" from="-E4" to="-E34.301" vehsPerHour="423" departSpeed="max" departLane="best" />
  <flow id="f_27" type="passenger_car" begin="0" end="3600" from="E40" to="E4" vehsPerHour="321" departSpeed="max" departLane="best" />     
  <flow id="f_28" type="passenger_car" begin="0" end="3600" from="-E17" to="472652453#5.1331" vehsPerHour="80" departSpeed="max" departLane="best" />
  <flow id="f_29" type="passenger_car" begin="0" end="3600" from="-E23.227" to="-E2" vehsPerHour="30" departSpeed="max" departLane="best" />
  <flow id="f_30" type="passenger_car" begin="0" end="3600" from="-E39" to="-E40" vehsPerHour="751" departSpeed="max" departLane="best" />  
  <flow id="f_31" type="passenger_car" begin="0" end="3600" from="E40" to="-1324682272#2.123" vehsPerHour="282" departSpeed="max" departLane="best" />
  <flow id="f_32" type="passenger_car" begin="0" end="3600" from="-E17" to="158074689#1" vehsPerHour="481" departSpeed="max" departLane="best" />
  <flow id="f_33" type="passenger_car" begin="0" end="3600" from="E31" to="E4" vehsPerHour="241" departSpeed="max" departLane="best" />     
  <flow id="f_34" type="passenger_car" begin="0" end="3600" from="E31" to="-E23.227" vehsPerHour="282" departSpeed="max" departLane="best" />
  <flow id="f_35" type="passenger_car" begin="0" end="3600" from="E31" to="E39" vehsPerHour="241" departSpeed="max" departLane="best" />    
  <flow id="f_36" type="passenger_car" begin="0" end="3600" from="-E17" to="472652453#5.1331" vehsPerHour="80" departSpeed="max" departLane="best" />
  <flow id="f_37" type="passenger_car" begin="0" end="3600" from="-472652453#5.1331" to="-158074689#1" vehsPerHour="307" departSpeed="max" departLane="best" />
  <flow id="f_38" type="passenger_car" begin="0" end="3600" from="-E35.87" to="-E9" vehsPerHour="30" departSpeed="max" departLane="best" /> 
  <flow id="f_39" type="passenger_car" begin="0" end="3600" from="-E33" to="-E7" vehsPerHour="470" departSpeed="max" departLane="best" />   
  <flow id="f_40" type="passenger_car" begin="0" end="3600" from="-472652453#1.89" to="-E31.49" vehsPerHour="360" departSpeed="max" departLane="best" />
  <flow id="f_41" type="passenger_car" begin="0" end="3600" from="-E34.301" to="E34.355" vehsPerHour="42" departSpeed="max" departLane="best" />
  <flow id="f_42" type="passenger_car" begin="0" end="3600" from="-E3" to="-158074689#3" vehsPerHour="30" departSpeed="max" departLane="best" />
  <flow id="f_43" type="passenger_car" begin="0" end="3600" from="-E39" to="-E29" vehsPerHour="510" departSpeed="max" departLane="best" />  
  <flow id="f_44" type="passenger_car" begin="0" end="3600" from="143009830#0.1574" to="E39" vehsPerHour="624" departSpeed="max" departLane="best" />
  <flow id="f_45" type="passenger_car" begin="0" end="3600" from="-E26" to="E39" vehsPerHour="282" departSpeed="max" departLane="best" />   
  <flow id="f_46" type="passenger_car" begin="0" end="3600" from="-E39" to="E15.39" vehsPerHour="631" departSpeed="max" departLane="best" />
  <flow id="f_47" type="passenger_car" begin="0" end="3600" from="-E23.227" to="E17" vehsPerHour="282" departSpeed="max" departLane="best" />
  <flow id="f_48" type="passenger_car" begin="0" end="3600" from="E10" to="E33" vehsPerHour="282" departSpeed="max" departLane="best" />    
  <flow id="f_49" type="passenger_car" begin="0" end="3600" from="-E7" to="-E11" vehsPerHour="30" departSpeed="max" departLane="best" />    
  <flow id="f_50" type="passenger_car" begin="0" end="3600" from="-472652453#5.1437" to="E15.39" vehsPerHour="360" departSpeed="max" departLane="best" />
  <flow id="f_51" type="passenger_car" begin="0" end="3600" from="-E4" to="E22.87" vehsPerHour="211" departSpeed="max" departLane="best" /> 
  <flow id="f_52" type="passenger_car" begin="0" end="3600" from="-E4" to="E17" vehsPerHour="631" departSpeed="max" departLane="best" />    
  <flow id="f_53" type="passenger_car" begin="0" end="3600" from="-E4" to="472652453#4.76" vehsPerHour="360" departSpeed="max" departLane="best" />
  <flow id="f_54" type="passenger_car" begin="0" end="3600" from="-E39" to="E17" vehsPerHour="631" departSpeed="max" departLane="best" />   
  <flow id="f_55" type="passenger_car" begin="0" end="3600" from="E29" to="E33" vehsPerHour="160" departSpeed="max" departLane="best" />    
  <flow id="f_56" type="passenger_car" begin="0" end="3600" from="158176575#2.141" to="E8" vehsPerHour="120" departSpeed="max" departLane="best" />
  <flow id="f_57" type="passenger_car" begin="0" end="3600" from="-E8" to="E34" vehsPerHour="117" departSpeed="max" departLane="best" />    
  <flow id="f_58" type="passenger_car" begin="0" end="3600" from="143009830#0.1574" to="-E31.49" vehsPerHour="30" departSpeed="max" departLane="best" />
  <flow id="f_59" type="passenger_car" begin="0" end="3600" from="E33" to="-E40" vehsPerHour="470" departSpeed="max" departLane="best" />   
  <flow id="f_60" type="passenger_car" begin="0" end="3600" from="-E39" to="E4" vehsPerHour="241" departSpeed="max" departLane="best" />    
  <flow id="f_61" type="passenger_car" begin="0" end="3600" from="E34.355" to="472652453#4.76" vehsPerHour="36" departSpeed="max" departLane="best" />
  <flow id="f_62" type="passenger_car" begin="0" end="3600" from="-E18.45" to="-E7" vehsPerHour="30" departSpeed="max" departLane="best" /> 
  <flow id="f_63" type="passenger_car" begin="0" end="3600" from="E40" to="158176575#3" vehsPerHour="240" departSpeed="max" departLane="best" />
  <flow id="f_64" type="passenger_car" begin="0" end="3600" from="158176575#2" to="-E31.49" vehsPerHour="180" departSpeed="max" departLane="best" />
  <flow id="f_65" type="passenger_car" begin="0" end="3600" from="-472652453#5.1331" to="E30.228" vehsPerHour="481" departSpeed="max" departLane="best" />
  <flow id="f_66" type="passenger_car" begin="0" end="3600" from="-E15" to="-E29" vehsPerHour="80" departSpeed="max" departLane="best" />   
  <flow id="f_67" type="passenger_car" begin="0" end="3600" from="-E39" to="E35" vehsPerHour="352" departSpeed="max" departLane="best" />   
  <flow id="f_68" type="passenger_car" begin="0" end="3600" from="E34" to="-E40" vehsPerHour="587" departSpeed="max" departLane="best" />   
  <flow id="f_69" type="passenger_car" begin="0" end="3600" from="143009830#0.1574" to="E39" vehsPerHour="624" departSpeed="max" departLane="best" />
  <flow id="f_70" type="passenger_car" begin="0" end="3600" from="E23.54" to="E33" vehsPerHour="282" departSpeed="max" departLane="best" /> 
  <flow id="f_71" type="passenger_car" begin="0" end="3600" from="158176575#3" to="E17" vehsPerHour="180" departSpeed="max" departLane="best" />
  <flow id="f_72" type="passenger_car" begin="0" end="3600" from="-E34.301" to="E17" vehsPerHour="423" departSpeed="max" departLane="best" />
  <flow id="f_73" type="passenger_car" begin="0" end="3600" from="-1324604419#1" to="158176575#2" vehsPerHour="30" departSpeed="max" departLane="best" />
  <flow id="f_74" type="passenger_car" begin="0" end="3600" from="-143009830#0.1574" to="-E26.180" vehsPerHour="30" departSpeed="max" departLane="best" />
  <flow id="f_75" type="passenger_car" begin="0" end="3600" from="E39" to="E33" vehsPerHour="376" departSpeed="max" departLane="best" />    
  <flow id="f_76" type="passenger_car" begin="0" end="3600" from="-E8" to="-E33" vehsPerHour="94" departSpeed="max" departLane="best" />    
  <flow id="f_77" type="passenger_car" begin="0" end="3600" from="-E17" to="472652453#5.1331" vehsPerHour="80" departSpeed="max" departLane="best" />
  <flow id="f_78" type="passenger_car" begin="0" end="3600" from="-E13" to="158074689#1" vehsPerHour="30" departSpeed="max" departLane="best" />
  <flow id="f_79" type="passenger_car" begin="0" end="3600" from="E31" to="E17" vehsPerHour="631" departSpeed="max" departLane="best" />    
  <flow id="f_80" type="passenger_car" begin="0" end="3600" from="472652453#3" to="E15.39" vehsPerHour="180" departSpeed="max" departLane="best" />
  <flow id="f_81" type="passenger_car" begin="0" end="3600" from="E15.39" to="-472652453#5.1519" vehsPerHour="30" departSpeed="max" departLane="best" />
  <flow id="f_82" type="passenger_car" begin="0" end="3600" from="143009830#0.1574" to="E39" vehsPerHour="624" departSpeed="max" departLane="best" />
  <flow id="f_83" type="passenger_car" begin="0" end="3600" from="-E17" to="-143009830#0" vehsPerHour="481" departSpeed="max" departLane="best" />
  <flow id="f_84" type="passenger_car" begin="0" end="3600" from="-E22" to="-143009830#0.1574" vehsPerHour="141" departSpeed="max" departLane="best" />
  <flow id="f_85" type="passenger_car" begin="0" end="3600" from="-E33" to="E33" vehsPerHour="321" departSpeed="max" departLane="best" />   
  <flow id="f_86" type="passenger_car" begin="0" end="3600" from="-472652453#5.1331" to="E35.84" vehsPerHour="601" departSpeed="max" departLane="best" />
  <flow id="f_87" type="passenger_car" begin="0" end="3600" from="E17" to="-E31.49" vehsPerHour="211" departSpeed="max" departLane="best" />
  <flow id="f_88" type="passenger_car" begin="0" end="3600" from="-E26.180" to="-E31.49" vehsPerHour="352" departSpeed="max" departLane="best" />
  <flow id="f_89" type="passenger_car" begin="0" end="3600" from="-E4" to="E20" vehsPerHour="510" departSpeed="max" departLane="best" />    
  <flow id="f_90" type="passenger_car" begin="0" end="3600" from="-E27" to="E4" vehsPerHour="80" departSpeed="max" departLane="best" />     
  <flow id="f_91" type="passenger_car" begin="0" end="3600" from="-143009874.1041" to="-E13" vehsPerHour="180" departSpeed="max" departLane="best" />
  <flow id="f_92" type="passenger_car" begin="0" end="3600" from="-E17" to="1324682272#2.123.123" vehsPerHour="282" departSpeed="max" departLane="best" />
  <flow id="f_93" type="passenger_car" begin="0" end="3600" from="158074689#2" to="E17" vehsPerHour="180" departSpeed="max" departLane="best" />
  <flow id="f_94" type="passenger_car" begin="0" end="3600" from="-E39" to="-E29" vehsPerHour="510" departSpeed="max" departLane="best" />  
  <flow id="f_95" type="passenger_car" begin="0" end="3600" from="-E33" to="-E27" vehsPerHour="94" departSpeed="max" departLane="best" />   
  <flow id="f_96" type="passenger_car" begin="0" end="3600" from="143009830#0.1574" to="-E31.49" vehsPerHour="30" departSpeed="max" departLane="best" />
  <flow id="f_97" type="passenger_car" begin="0" end="3600" from="E30.60" to="E15.39" vehsPerHour="282" departSpeed="max" departLane="best" />
  <flow id="f_98" type="passenger_car" begin="0" end="3600" from="-E39" to="E4" vehsPerHour="241" departSpeed="max" departLane="best" />    
  <flow id="f_99" type="passenger_car" begin="0" end="3600" from="-472652453#5.1331" to="-143009830#0.1574" vehsPerHour="312" departSpeed="max" departLane="best" />
  <flow id="f_100" type="passenger_car" begin="0" end="3600" from="-E15" to="-E22" vehsPerHour="282" departSpeed="max" departLane="best" /> 
  <flow id="f_101" type="passenger_car" begin="0" end="3600" from="-E17" to="E27" vehsPerHour="80" departSpeed="max" departLane="best" />   
  <flow id="f_102" type="passenger_car" begin="0" end="3600" from="E5" to="472645993#4" vehsPerHour="30" departSpeed="max" departLane="best" />
  <flow id="f_103" type="passenger_car" begin="0" end="3600" from="-E15" to="-E40" vehsPerHour="402" departSpeed="max" departLane="best" /> 
  <flow id="f_104" type="passenger_car" begin="0" end="3600" from="-143009830#0" to="E33" vehsPerHour="481" departSpeed="max" departLane="best" />
  <flow id="f_105" type="passenger_car" begin="0" end="3600" from="-472652453#5.1331" to="-E31.49" vehsPerHour="30" departSpeed="max" departLane="best" />
  <flow id="f_106" type="passenger_car" begin="0" end="3600" from="-E27" to="E15.39" vehsPerHour="510" departSpeed="max" departLane="best" />
  <flow id="f_107" type="passenger_car" begin="0" end="3600" from="143009830#0.1574" to="-E12" vehsPerHour="360" departSpeed="max" departLane="best" />
  <flow id="f_108" type="passenger_car" begin="0" end="3600" from="-E26.180" to="-E34" vehsPerHour="30" departSpeed="max" departLane="best" />
  <flow id="f_109" type="passenger_car" begin="0" end="3600" from="-472652453#5.1331" to="-E31.49" vehsPerHour="30" departSpeed="max" departLane="best" />
  <flow id="f_110" type="passenger_car" begin="0" end="3600" from="-472652453#5.1331" to="E35.84" vehsPerHour="601" departSpeed="max" departLane="best" />
  <flow id="f_111" type="passenger_car" begin="0" end="3600" from="-E40" to="E40" vehsPerHour="30" departSpeed="max" departLane="best" />   
  <flow id="f_112" type="passenger_car" begin="0" end="3600" from="-E39" to="E27" vehsPerHour="510" departSpeed="max" departLane="best" />  
  <flow id="f_113" type="passenger_car" begin="0" end="3600" from="-143009874.1041" to="E39" vehsPerHour="312" departSpeed="max" departLane="best" />
  <flow id="f_114" type="passenger_car" begin="0" end="3600" from="143009830#0.1693" to="-E28" vehsPerHour="30" departSpeed="max" departLane="best" />
  <flow id="f_115" type="passenger_car" begin="0" end="3600" from="-E17" to="E4" vehsPerHour="321" departSpeed="max" departLane="best" />   
  <flow id="f_116" type="passenger_car" begin="0" end="3600" from="E31" to="1324682272#2.123.123" vehsPerHour="211" departSpeed="max" departLane="best" />
  <flow id="f_117" type="passenger_car" begin="0" end="3600" from="E18" to="-E40" vehsPerHour="470" departSpeed="max" departLane="best" />  
  <flow id="f_118" type="passenger_car" begin="0" end="3600" from="143009830#0.1574" to="1324682272#2.123.123" vehsPerHour="360" departSpeed="max" departLane="best" />
  <flow id="f_119" type="passenger_car" begin="0" end="3600" from="E26" to="-E40" vehsPerHour="470" departSpeed="max" departLane="best" />  
</routes>
        <route edges="-E5 E6 -E9 -E10 472652453#1 472652453#2 472652453#3 472652453#4 472652453#4.76 -158074689#4"/>
    </vehicle>
    <vehicle id="325" depart="650.00">
        <route edges="-E23.55"/>
    </vehicle>
    <vehicle id="326" depart="652.00">
        <route edges="158176580 -E9 -E10 472652453#1 472652453#2 472652453#3 472652453#4 472652453#4.76 -158074689#4 -158074689#3 -158074689#2 -158074689#1 E27"/>
    </vehicle>
    <vehicle id="327" depart="654.00">
        <route edges="-E22.37 158176575#0 158176575#1 158176575#2 158176575#2.141 -472652453#2 -472652453#1 -472652453#1.89 E10"/>
    </vehicle>
    <vehicle id="328" depart="656.00">
        <route edges="-E17 -E16 -E18 -E18.45 -E22 -E22.37 1324682272#2.123 1324682272#2.123.123 -E28 -E30 -E30.41 -E30.210 E35 E35.84"/>
    </vehicle>
    <vehicle id="329" depart="658.00">
        <route edges="E22 E22.87 E18 E18.107 E13 E13.98 E12 E11 E11.123 -143009830#0 143009830#0.1693 472652453#1 472652453#2 158176575#3 158176575#3.57 -E23 -E23.55 -E23.227 158074689#2"/>
    </vehicle>
    <vehicle id="330" depart="660.00">
        <route edges="-E35.389 E30 E30.60 E30.228 E28 -472645993#4 472645993#4 -1324604419#1 -1324604421 -158176573 158176572#1 -E22 -E22.37"/>
    </vehicle>
    <vehicle id="331" depart="662.00">
        <route edges="-E22 -E22.37 158176575#0 158176575#1 158176575#2 158176575#2.141 -472652453#2 -472652453#1 -472652453#1.89 E10 E9 -E6 E5"/>
    </vehicle>
    <vehicle id="332" depart="664.00">
        <route edges="-E30.41 -E30.210 E35 E35.84 E35.389 -472652453#5.1519 -472652453#4 -472652453#4.38 -472652453#3 -158176575#2 -158176575#2.58 -158176575#1 1324604421"/>
    </vehicle>
    <vehicle id="333" depart="666.00">
        <route edges="1324604419#1 -E28 -158074689#5 -158074689#4 -158074689#3 -158074689#2 -E26 -E26.30 -E26.180 -E34 -E34.60 -E34.301"/>
    </vehicle>
    <vehicle id="334" depart="668.00">
        <route edges="-472652453#2 472652453#2 472652453#3 1324604419#0 1324604419#1 -472645993#4 -E29"/>
    </vehicle>
    <vehicle id="335" depart="670.00">
        <route edges="E13.98 E12 E11 E11.123 -143009830#0 143009830#0.1693 472652453#1 -1185749030#2 -1185749030#1 158176580"/>
    </vehicle>
    <vehicle id="336" depart="672.00">
        <route edges="E13.98 E12 E11 E11.123 -143009830#0 143009830#0.1693 472652453#1 472652453#2 472652453#3 472652453#4 472652453#4.76 -158074689#4 158074689#4 -472652453#4 -472652453#4.38"/>
    </vehicle>
    <vehicle id="337" depart="674.00">
        <route edges="1324604425 -E10 472652453#1 472652453#2 472652453#3 1324604419#0 1324604419#1 -E28 -E30 -E30.41 -E30.210 E35"/>
    </vehicle>
    <vehicle id="338" depart="676.00">
        <route edges="-E34.301 -472652453#5.1519 -472652453#4 -472652453#4.38 1324604419#0 1324604419#1 -1324682272#2.123 -1324682272#2.123.55 E22 E22.87 E18 E18.107 E13 E13.98 E12 E11"/>
    </vehicle>
    <vehicle id="339" depart="678.00">
        <route edges="-158176573 -158176572#0 -472652453#1 -472652453#1.89 E10 E9 -E6 E5"/>
    </vehicle>
    <vehicle id="340" depart="680.00">
        <route edges="158074689#5 E28 -472645993#4 472645993#4 -1324604419#1 -1324604419#0 -472652453#3 -472652453#2 -472652453#1 -472652453#1.89 -E11 -E11.60"/>
    </vehicle>
    <vehicle id="341" depart="682.00">
        <route edges="-158176575#3.354 472652453#3 472652453#4 472652453#4.76 -158074689#4 -158074689#3 -158074689#2 -158074689#1 158074689#1 158074689#2"/>
    </vehicle>
    <vehicle id="342" depart="684.00">
        <route edges="1324604425 -E10 472652453#1 472652453#2 472652453#3 472652453#4 472652453#4.76 -158074689#4"/>
    </vehicle>
    <vehicle id="343" depart="686.00">
        <route edges="-E35.87 -E35.389 E30 E30.60 E30.228 E28 -472645993#4 472645993#4 -1324604419#1 -1324604421 -158176573"/>
    </vehicle>
    <vehicle id="344" depart="688.00">
        <route edges="E23.226 -158176575#3 -158176575#3.354 472652453#3 1324604419#0"/>
    </vehicle>
    <vehicle id="345" depart="690.00">
        <route edges="472652453#5.1519 E34 E34.112 E34.355 E26 E26.73 E26.232 158074689#2 158074689#3 158074689#4 -472652453#4 -472652453#4.38 1324604419#0 1324604419#1"/>
    </vehicle>
    <vehicle id="346" depart="692.00">
        <route edges="-E15 -E15.70 -E18 -E18.45 -E22 -E22.37 158176575#0 158176575#1 158176575#2 158176575#2.141 158176575#3 158176575#3.57 E24 E25"/>
    </vehicle>
    <vehicle id="347" depart="694.00">
        <route edges="E5 -E2 -E1 -E21 -E21.32 -158176575#3 -158176575#3.354 -472652453#2 -472652453#1 -472652453#1.89 -E11 -E11.60 -E12"/>
    </vehicle>
    <vehicle id="348" depart="696.00">
        <route edges="1324604425 -E10 472652453#1 472652453#2 472652453#3 1324604419#0 1324604419#1 -E28 -E30 -E30.41"/>
    </vehicle>
    <vehicle id="349" depart="698.00">
        <route edges="E34 E34.112 E34.355 E26 E26.73 E26.232 158074689#2 158074689#3 158074689#4 -472652453#4 -472652453#4.38 1324604419#0 1324604419#1"/>
    </vehicle>
    <vehicle id="350" depart="700.00">
        <route edges="E3 -E2 -E1 -E21 -E21.32 -E23 -E23.55 -E23.227 158074689#2 158074689#3 158074689#4 158074689#5 E28"/>
    </vehicle>
    <vehicle id="351" depart="702.00">
        <route edges="-E15.70 -E18 -E18.45 -E22 -E22.37 158176575#0 158176575#1 158176575#2 158176575#2.141 158176575#3 158176575#3.57 E21 E21.77"/>
    </vehicle>
    <vehicle id="352" depart="704.00">
        <route edges="-E32 E26 E26.73 E26.232 158074689#2 158074689#3 158074689#4 158074689#5 -E30 -E30.41 -E30.210 E35 E35.84 E35.389"/>
    </vehicle>
    <vehicle id="353" depart="706.00">
        <route edges="-E8 -E7 -E2 -E1 -E21 -E21.32 -E23 -E23.55 -E23.227 -158074689#1 158074689#1 E23 E23.54"/>
    </vehicle>
    <vehicle id="354" depart="708.00">
        <route edges="-E16 E13 E13.98 E12 E11 E11.123 E10 E9 -E6 E5 -E2 -E1 -E21 -E21.32"/>
    </vehicle>
    <vehicle id="355" depart="710.00">
        <route edges="158074689#2 158074689#3 158074689#4 -472652453#4 -472652453#4.38 -472652453#3 -472652453#2 -472652453#1 -472652453#1.89 E10 E9"/>
    </vehicle>
    <vehicle id="356" depart="712.00">
        <route edges="-E5 E6 -E9 -E10 472652453#1 472652453#2 158176575#3 158176575#3.57 -158176575#3"/>
    </vehicle>
    <vehicle id="357" depart="714.00">
        <route edges="1324604419#1 -E28 -158074689#5 -158074689#4 -158074689#3 -158074689#2 -E26 -E26.30 -E26.180"/>
    </vehicle>
    <vehicle id="358" depart="716.00">
        <route edges="1324604425 -E10 472652453#1 472652453#2 472652453#3 472652453#4 472652453#4.76 -158074689#4 -158074689#3 -158074689#2 -158074689#1 158074689#1"/>
    </vehicle>
    <vehicle id="359" depart="718.00">
        <route edges="-E35.389 E30 E30.60 E30.228 -158074689#5 -472652453#4 -472652453#4.38 -472652453#3 158176575#3 158176575#3.57 -E23 -E23.55 -E23.227"/>
    </vehicle>
    <vehicle id="360" depart="720.00">
        <route edges="-472652453#2 472652453#2 472652453#3 1324604419#0 1324604419#1 -1324682272#2.123 -1324682272#2.123.55 E22 E22.87 E18 E18.107 E13 E13.98 E12 E11"/>
    </vehicle>
    <vehicle id="361" depart="722.00">
        <route edges="143009830#0.1574 143009830#0.1693 -E11"/>
    </vehicle>
    <vehicle id="362" depart="724.00">
        <route edges="E18 E18.107 E13 E13.98 E12 E11 E11.123 -143009830#0 143009830#0.1693 472652453#1 472652453#2 472652453#3 1324604419#0 1324604419#1 -1324682272#2.123"/>
    </vehicle>
    <vehicle id="363" depart="726.00">
        <route edges="E12 E11 E11.123"/>
    </vehicle>
    <vehicle id="364" depart="728.00">
        <route edges="E22 E22.87 E18 E18.107 E13 E13.98 E12 E11 E11.123 -143009830#0 143009830#0.1693 472652453#1 472652453#2 472652453#3 1324604419#0 1324604419#1 -E28 -E30 -E30.41"/>
    </vehicle>
    <vehicle id="365" depart="730.00">
        <route edges="158176575#3.57 -E23 -E23.55 -E23.227 -158074689#1 158074689#1 E23 E23.54"/>
    </vehicle>
    <vehicle id="366" depart="732.00">
        <route edges="E5 -E2 -E1 -E21 -E21.32 -158176575#3 -158176575#3.354 -472652453#2 -1185749030#2 1185749030#2"/>
    </vehicle>
    <vehicle id="367" depart="734.00">
        <route edges="-1324604425 1185749030#2 472652453#2 472652453#3 1324604419#0"/>
    </vehicle>
    <vehicle id="368" depart="736.00">
        <route edges="E29 472645993#4 -1324604419#1 -1324604419#0 472652453#4 472652453#4.76 472652453#5.1519 -E35 -E35.87"/>
    </vehicle>
    <vehicle id="369" depart="738.00">
        <route edges="1185749030#2 472652453#2 472652453#3 1324604419#0 1324604419#1 -E28 -E30 -E30.41 -E30.210 -E41"/>
    </vehicle>
    <vehicle id="370" depart="740.00">
        <route edges="E1 E2 -E5 E6 -E9 -E10 472652453#1 472652453#2 472652453#3 472652453#4 472652453#4.76 -158074689#4 -158074689#3 -158074689#2 -E26 -E26.30 -E26.180 -E34"/>
    </vehicle>
    <vehicle id="371" depart="742.00">
        <route edges="158176575#3 158176575#3.57 -158176575#3 -158176575#3.354"/>
    </vehicle>
    <vehicle id="372" depart="744.00">
        <route edges="-E23 -E23.55 -E23.227 158074689#2 158074689#3 158074689#4 -472652453#4 -472652453#4.38 -472652453#3 -472652453#2 -472652453#1 -472652453#1.89 E10"/>
    </vehicle>
    <vehicle id="373" depart="746.00">
        <route edges="158176575#2.141 472652453#3 472652453#4 472652453#4.76 472652453#5.1519 E34 E34.112 E34.355 E26 E26.73"/>
    </vehicle>
    <vehicle id="374" depart="748.00">
        <route edges="E26 E26.73 E26.232 -158074689#1 E27"/>
    </vehicle>
    <vehicle id="375" depart="750.00">
        <route edges="-E28 -158074689#5 -472652453#4 -472652453#4.38 -472652453#3 158176575#3 158176575#3.57 -E23"/>
    </vehicle>
    <vehicle id="376" depart="752.00">
        <route edges="472652453#5.1519 -E35 -E35.87 -E35.389 E30 E30.60 E30.228 E28 -1324682272#2.123 -1324682272#2.123.55 E22 E22.87 E18 E18.107"/>
    </vehicle>
    <vehicle id="377" depart="754.00">
        <route edges="E29 472645993#4 -1324604419#1 -1324604421"/>
    </vehicle>
    <vehicle id="378" depart="756.00">
        <route edges="-143009874.1161 E11 E11.123 -143009830#0 143009830#0.1693 472652453#1 472652453#2 472652453#3 1324604419#0 1324604419#1 -472645993#4 472645993#4"/>
    </vehicle>
    <vehicle id="379" depart="758.00">
        <route edges="E34 E34.112 E34.355 E26 E26.73 E26.232 158074689#2 158074689#3 158074689#4 -472652453#4 -472652453#4.38 -472652453#3 -472652453#2 -472652453#1 -472652453#1.89 E10 E9"/>
    </vehicle>
    <vehicle id="380" depart="760.00">
        <route edges="E12 E11 E11.123 -143009830#0 143009830#0.1693 472652453#1 472652453#2 472652453#3 472652453#4 472652453#4.76 472652453#5.1519 -E35 -E35.87 -E35.389"/>
    </vehicle>
    <vehicle id="381" depart="762.00">
        <route edges="-158074689#5 -472652453#4 -472652453#4.38 1324604419#0 1324604419#1 -472645993#4 472645993#4"/>
    </vehicle>
    <vehicle id="382" depart="764.00">
        <route edges="472652453#3 472652453#4 472652453#4.76 -158074689#4 -158074689#3 -158074689#2 -E26 -E26.30 -E26.180 E32 E33"/>
    </vehicle>
    <vehicle id="383" depart="766.00">
        <route edges="-1324682272#2.123 -1324682272#2.123.55 E22"/>
    </vehicle>
    <vehicle id="384" depart="768.00">
        <route edges="-E18 -E18.45 -E22 -E22.37 1324682272#2.123 1324682272#2.123.123 -E28 -E30"/>
    </vehicle>
    <vehicle id="385" depart="770.00">
        <route edges="-158176575#2.58 -158176575#1 -158176575#0 1324682272#2.123 1324682272#2.123.123"/>
    </vehicle>
    <vehicle id="386" depart="772.00">
        <route edges="1324682272#2.123.123 -E28 -158074689#5 -472652453#4 -472652453#4.38 -472652453#3 158176575#3 158176575#3.57 E21 E21.77"/>
    </vehicle>
    <vehicle id="387" depart="774.00">
        <route edges="-472645993#4 472645993#4 -1324604419#1 -1324604419#0 472652453#4 472652453#4.76 -158074689#4 -158074689#3 -158074689#2"/>
    </vehicle>
    <vehicle id="388" depart="776.00">
        <route edges="E28 -472645993#4 472645993#4 -1324604419#1 -1324604419#0 -472652453#3 158176575#3 158176575#3.57"/>
    </vehicle>
    <vehicle id="389" depart="778.00">
        <route edges="-E11 -E11.60 -E12 -E13 -E13.88 -E18 -E18.45 -E22 -E22.37 158176575#0 158176575#1 158176575#2 158176575#2.141 472652453#3 472652453#4 472652453#4.76 472652453#5.1519 E34"/>
    </vehicle>
    <vehicle id="390" depart="780.00">