<configuration>
    <input>
        <net-file value="data/processed/czq_tls_webster.net.xml"/>
        <route-files value="czq_demand.rou.xml"/>
        <additional-files value="vtypes.add.xml"/>
        <gui-settings-file value="gui-settings.xml"/>
    </input>
    <time>
        <begin value="0"/>
        <end value="3600"/>
    </time>
    <processing>
        <collision.action value="remove"/>
        <time-to-teleport value="-1"/> 
    </processing>
</configuration>
